*************************************************
   ChampSim Multicore Out-of-Order Simulator
   Last compiled: Nov 21 2024 21:50:18
*************************************************
parsing config file: /home/shichen/os/compile-time-prefetcher-classification/ChampSim/config/mlop.ini

trace_0 /home/shichen/os/compile-time-prefetcher-classification/ChampSim/traces/410.bwaves-2097B.champsimtrace.xz
adding L2C_PREFETCHER: MLOP
Initialize SHIP state
warmup_instructions 100000000
simulation_instructions 500000000
champsim_seed 276
measure_ipc 0
measure_ipc_epoch 1000
measure_dram_bw 1
measure_dram_bw_epoch 256
measure_cache_acc 1
measure_cache_acc_epoch 1024
l1d_perfect 0
l2c_perfect 0
llc_perfect 0
l1d_semi_perfect 0
l2c_semi_perfect 0
llc_semi_perfect 0
semi_perfect_cache_page_buffer_size 64

num_cpus 1
cpu_freq 4000
dram_io_freq 2400
page_size 4096
block_size 64
max_read_per_cycle 8
max_fill_per_cycle 1
dram_channels 1
log2_dram_channels 0
dram_ranks 1
dram_banks 8
dram_rows 65536
dram_columns 128
dram_row_size 8
dram_size 4096
dram_pages 1048576

fetch_width 6
decode_width 6
exec_width 4
lq_width 2
sq_width 2
retire_width 4
scheduler_size 128
branch_mispredict_penalty 20
rob_size 256
lq_size 72
sq_size 56
num_instr_destinations_sparc 4
num_instr_destinations 2
num_instr_sources 4

itlb_set 16
itlb_way 8
itlb_rq_size 16
itlb_wq_size 16
itlb_pq_size 0
itlb_mshr_size 8
itlb_latency 1

dtlb_set 16
dtlb_way 4
dtlb_rq_size 16
dtlb_wq_size 16
dtlb_pq_size 0
dtlb_mshr_size 8
dtlb_latency 1

stlb_set 128
stlb_way 12
stlb_rq_size 32
stlb_wq_size 32
stlb_pq_size 0
stlb_mshr_size 16
stlb_latency 8

l1i_size 32
l1i_set 64
l1i_way 8
l1i_rq_size 64
l1i_wq_size 64
l1i_pq_size 8
l1i_mshr_size 8
l1i_latency 1

l1d_size 32
l1d_set 64
l1d_way 8
l1d_rq_size 64
l1d_wq_size 64
l1d_pq_size 8
l1d_mshr_size 16
l1d_latency 4

l2c_size 256
l2c_set 512
l2c_way 8
l2c_rq_size 32
l2c_wq_size 32
l2c_pq_size 32
l2c_mshr_size 32
l2c_latency 10

llc_size 2048
llc_set 2048
llc_way 16
llc_rq_size 32
llc_wq_size 32
llc_pq_size 32
llc_mshr_size 64
llc_latency 20

dram_channel_width 8
dram_wq_size 64
dram_rq_size 64
tRP 15
tRCD 15
tCAS 12.5
dram_dbus_turn_around_time 30
dram_write_high_wm 56
dram_write_low_wm 48
min_dram_writes_per_switch 16
dram_mtps 2400
dram_dbus_return_time 13

mlop_pref_degree 16
mlop_num_updates 500
mlop_l1d_thresh 2
mlop_l2c_thresh 0.75
mlop_llc_thresh 0.3
mlop_debug_level 0
mlop_blocks_in_cache 4096
mlop_blocks_in_zone 64
mlop_amt_size 2048
mlop_PF_DEGREE 16
mlop_NUM_UPDATES 500
mlop_L1D_THRESH 1000
mlop_L2C_THRESH 375
mlop_LLC_THRESH 150
mlop_ORIGIN 63
mlop_MAX_OFFSET 63
mlop_MIN_OFFSET -63
mlop_ORIGIN 63
mlop_NUM_OFFSETS 127


Heartbeat CPU  0 instructions:    1000002 cycles:     653872 heartbeat IPC: 1.52935 cumulative IPC: 1.52935 (Simulation time: 0 hr 0 min 2 sec) 
Heartbeat CPU  0 instructions:    2000002 cycles:    1307256 heartbeat IPC: 1.53049 cumulative IPC: 1.52992 (Simulation time: 0 hr 0 min 5 sec) 
Heartbeat CPU  0 instructions:    3000001 cycles:    1960646 heartbeat IPC: 1.53048 cumulative IPC: 1.53011 (Simulation time: 0 hr 0 min 7 sec) 
Heartbeat CPU  0 instructions:    4000000 cycles:    2614074 heartbeat IPC: 1.53039 cumulative IPC: 1.53018 (Simulation time: 0 hr 0 min 10 sec) 
Heartbeat CPU  0 instructions:    5000001 cycles:    3267419 heartbeat IPC: 1.53059 cumulative IPC: 1.53026 (Simulation time: 0 hr 0 min 12 sec) 
Heartbeat CPU  0 instructions:    6000002 cycles:    3920721 heartbeat IPC: 1.53069 cumulative IPC: 1.53033 (Simulation time: 0 hr 0 min 15 sec) 
Heartbeat CPU  0 instructions:    7000003 cycles:    4573925 heartbeat IPC: 1.53092 cumulative IPC: 1.53041 (Simulation time: 0 hr 0 min 17 sec) 
Heartbeat CPU  0 instructions:    8000000 cycles:    5227215 heartbeat IPC: 1.53071 cumulative IPC: 1.53045 (Simulation time: 0 hr 0 min 20 sec) 
Heartbeat CPU  0 instructions:    9000001 cycles:    5880484 heartbeat IPC: 1.53076 cumulative IPC: 1.53049 (Simulation time: 0 hr 0 min 22 sec) 
Heartbeat CPU  0 instructions:   10000000 cycles:    6533898 heartbeat IPC: 1.53042 cumulative IPC: 1.53048 (Simulation time: 0 hr 0 min 24 sec) 
Heartbeat CPU  0 instructions:   11000002 cycles:    7187229 heartbeat IPC: 1.53062 cumulative IPC: 1.53049 (Simulation time: 0 hr 0 min 27 sec) 
Heartbeat CPU  0 instructions:   12000000 cycles:    7840611 heartbeat IPC: 1.53050 cumulative IPC: 1.53049 (Simulation time: 0 hr 0 min 29 sec) 
Heartbeat CPU  0 instructions:   13000000 cycles:    8494050 heartbeat IPC: 1.53036 cumulative IPC: 1.53048 (Simulation time: 0 hr 0 min 32 sec) 
Heartbeat CPU  0 instructions:   14000001 cycles:    9147466 heartbeat IPC: 1.53042 cumulative IPC: 1.53048 (Simulation time: 0 hr 0 min 34 sec) 
Heartbeat CPU  0 instructions:   15000002 cycles:    9800843 heartbeat IPC: 1.53051 cumulative IPC: 1.53048 (Simulation time: 0 hr 0 min 37 sec) 
Heartbeat CPU  0 instructions:   16000000 cycles:   10454286 heartbeat IPC: 1.53035 cumulative IPC: 1.53047 (Simulation time: 0 hr 0 min 39 sec) 
Heartbeat CPU  0 instructions:   17000002 cycles:   11107791 heartbeat IPC: 1.53021 cumulative IPC: 1.53046 (Simulation time: 0 hr 0 min 42 sec) 
Heartbeat CPU  0 instructions:   18000003 cycles:   11761246 heartbeat IPC: 1.53033 cumulative IPC: 1.53045 (Simulation time: 0 hr 0 min 44 sec) 
Heartbeat CPU  0 instructions:   19000000 cycles:   12414690 heartbeat IPC: 1.53035 cumulative IPC: 1.53044 (Simulation time: 0 hr 0 min 47 sec) 
Heartbeat CPU  0 instructions:   20000000 cycles:   13068186 heartbeat IPC: 1.53023 cumulative IPC: 1.53043 (Simulation time: 0 hr 0 min 49 sec) 
Heartbeat CPU  0 instructions:   21000001 cycles:   13721641 heartbeat IPC: 1.53033 cumulative IPC: 1.53043 (Simulation time: 0 hr 0 min 51 sec) 
Heartbeat CPU  0 instructions:   22000003 cycles:   14375178 heartbeat IPC: 1.53014 cumulative IPC: 1.53042 (Simulation time: 0 hr 0 min 54 sec) 
Heartbeat CPU  0 instructions:   23000001 cycles:   15028554 heartbeat IPC: 1.53051 cumulative IPC: 1.53042 (Simulation time: 0 hr 0 min 56 sec) 
Heartbeat CPU  0 instructions:   24000000 cycles:   15682138 heartbeat IPC: 1.53002 cumulative IPC: 1.53040 (Simulation time: 0 hr 0 min 59 sec) 
Heartbeat CPU  0 instructions:   25000001 cycles:   16335578 heartbeat IPC: 1.53036 cumulative IPC: 1.53040 (Simulation time: 0 hr 1 min 1 sec) 
Heartbeat CPU  0 instructions:   26000000 cycles:   16989134 heartbeat IPC: 1.53009 cumulative IPC: 1.53039 (Simulation time: 0 hr 1 min 4 sec) 
Heartbeat CPU  0 instructions:   27000001 cycles:   17642511 heartbeat IPC: 1.53051 cumulative IPC: 1.53039 (Simulation time: 0 hr 1 min 6 sec) 
Heartbeat CPU  0 instructions:   28000000 cycles:   18295730 heartbeat IPC: 1.53088 cumulative IPC: 1.53041 (Simulation time: 0 hr 1 min 9 sec) 
Heartbeat CPU  0 instructions:   29000000 cycles:   18949090 heartbeat IPC: 1.53055 cumulative IPC: 1.53042 (Simulation time: 0 hr 1 min 11 sec) 
Heartbeat CPU  0 instructions:   30000002 cycles:   19602390 heartbeat IPC: 1.53069 cumulative IPC: 1.53043 (Simulation time: 0 hr 1 min 13 sec) 
Heartbeat CPU  0 instructions:   31000000 cycles:   20255684 heartbeat IPC: 1.53070 cumulative IPC: 1.53043 (Simulation time: 0 hr 1 min 16 sec) 
Heartbeat CPU  0 instructions:   32000000 cycles:   20909022 heartbeat IPC: 1.53060 cumulative IPC: 1.53044 (Simulation time: 0 hr 1 min 18 sec) 
Heartbeat CPU  0 instructions:   33000000 cycles:   21562390 heartbeat IPC: 1.53053 cumulative IPC: 1.53044 (Simulation time: 0 hr 1 min 21 sec) 
Heartbeat CPU  0 instructions:   34000001 cycles:   22215721 heartbeat IPC: 1.53062 cumulative IPC: 1.53045 (Simulation time: 0 hr 1 min 23 sec) 
Heartbeat CPU  0 instructions:   35000000 cycles:   22869221 heartbeat IPC: 1.53022 cumulative IPC: 1.53044 (Simulation time: 0 hr 1 min 26 sec) 
Heartbeat CPU  0 instructions:   36000000 cycles:   23522520 heartbeat IPC: 1.53069 cumulative IPC: 1.53045 (Simulation time: 0 hr 1 min 28 sec) 
Heartbeat CPU  0 instructions:   37000000 cycles:   24175915 heartbeat IPC: 1.53047 cumulative IPC: 1.53045 (Simulation time: 0 hr 1 min 31 sec) 
Heartbeat CPU  0 instructions:   38000001 cycles:   24829179 heartbeat IPC: 1.53078 cumulative IPC: 1.53046 (Simulation time: 0 hr 1 min 33 sec) 
Heartbeat CPU  0 instructions:   39000002 cycles:   25482545 heartbeat IPC: 1.53054 cumulative IPC: 1.53046 (Simulation time: 0 hr 1 min 36 sec) 
Heartbeat CPU  0 instructions:   40000000 cycles:   26135824 heartbeat IPC: 1.53074 cumulative IPC: 1.53047 (Simulation time: 0 hr 1 min 38 sec) 
Heartbeat CPU  0 instructions:   41000000 cycles:   26789201 heartbeat IPC: 1.53051 cumulative IPC: 1.53047 (Simulation time: 0 hr 1 min 40 sec) 
Heartbeat CPU  0 instructions:   42000001 cycles:   27442569 heartbeat IPC: 1.53053 cumulative IPC: 1.53047 (Simulation time: 0 hr 1 min 43 sec) 
Heartbeat CPU  0 instructions:   43000003 cycles:   28095919 heartbeat IPC: 1.53058 cumulative IPC: 1.53047 (Simulation time: 0 hr 1 min 45 sec) 
Heartbeat CPU  0 instructions:   44000000 cycles:   28749425 heartbeat IPC: 1.53020 cumulative IPC: 1.53047 (Simulation time: 0 hr 1 min 48 sec) 
Heartbeat CPU  0 instructions:   45000000 cycles:   29402898 heartbeat IPC: 1.53029 cumulative IPC: 1.53046 (Simulation time: 0 hr 1 min 50 sec) 
Heartbeat CPU  0 instructions:   46000000 cycles:   30056315 heartbeat IPC: 1.53042 cumulative IPC: 1.53046 (Simulation time: 0 hr 1 min 53 sec) 
Heartbeat CPU  0 instructions:   47000002 cycles:   30709778 heartbeat IPC: 1.53031 cumulative IPC: 1.53046 (Simulation time: 0 hr 1 min 55 sec) 
Heartbeat CPU  0 instructions:   48000000 cycles:   31363169 heartbeat IPC: 1.53047 cumulative IPC: 1.53046 (Simulation time: 0 hr 1 min 58 sec) 
Heartbeat CPU  0 instructions:   49000001 cycles:   32016605 heartbeat IPC: 1.53037 cumulative IPC: 1.53046 (Simulation time: 0 hr 2 min 0 sec) 
Heartbeat CPU  0 instructions:   50000002 cycles:   32670052 heartbeat IPC: 1.53035 cumulative IPC: 1.53045 (Simulation time: 0 hr 2 min 3 sec) 
Heartbeat CPU  0 instructions:   51000003 cycles:   33323411 heartbeat IPC: 1.53055 cumulative IPC: 1.53046 (Simulation time: 0 hr 2 min 5 sec) 
Heartbeat CPU  0 instructions:   52000000 cycles:   33976803 heartbeat IPC: 1.53047 cumulative IPC: 1.53046 (Simulation time: 0 hr 2 min 7 sec) 
Heartbeat CPU  0 instructions:   53000000 cycles:   34630205 heartbeat IPC: 1.53045 cumulative IPC: 1.53046 (Simulation time: 0 hr 2 min 10 sec) 
Heartbeat CPU  0 instructions:   54000000 cycles:   35283589 heartbeat IPC: 1.53049 cumulative IPC: 1.53046 (Simulation time: 0 hr 2 min 12 sec) 
Heartbeat CPU  0 instructions:   55000002 cycles:   35936950 heartbeat IPC: 1.53055 cumulative IPC: 1.53046 (Simulation time: 0 hr 2 min 15 sec) 
Heartbeat CPU  0 instructions:   56000000 cycles:   36590460 heartbeat IPC: 1.53020 cumulative IPC: 1.53045 (Simulation time: 0 hr 2 min 17 sec) 
Heartbeat CPU  0 instructions:   57000002 cycles:   37243762 heartbeat IPC: 1.53069 cumulative IPC: 1.53046 (Simulation time: 0 hr 2 min 20 sec) 
Heartbeat CPU  0 instructions:   58000000 cycles:   37897216 heartbeat IPC: 1.53033 cumulative IPC: 1.53046 (Simulation time: 0 hr 2 min 22 sec) 
Heartbeat CPU  0 instructions:   59000002 cycles:   38550457 heartbeat IPC: 1.53083 cumulative IPC: 1.53046 (Simulation time: 0 hr 2 min 25 sec) 
Heartbeat CPU  0 instructions:   60000000 cycles:   39203915 heartbeat IPC: 1.53032 cumulative IPC: 1.53046 (Simulation time: 0 hr 2 min 27 sec) 
Heartbeat CPU  0 instructions:   61000002 cycles:   39857224 heartbeat IPC: 1.53067 cumulative IPC: 1.53046 (Simulation time: 0 hr 2 min 30 sec) 
Heartbeat CPU  0 instructions:   62000000 cycles:   40510463 heartbeat IPC: 1.53083 cumulative IPC: 1.53047 (Simulation time: 0 hr 2 min 32 sec) 
Heartbeat CPU  0 instructions:   63000001 cycles:   41163706 heartbeat IPC: 1.53083 cumulative IPC: 1.53047 (Simulation time: 0 hr 2 min 34 sec) 
Heartbeat CPU  0 instructions:   64000000 cycles:   41817004 heartbeat IPC: 1.53069 cumulative IPC: 1.53048 (Simulation time: 0 hr 2 min 37 sec) 
Heartbeat CPU  0 instructions:   65000000 cycles:   42470291 heartbeat IPC: 1.53072 cumulative IPC: 1.53048 (Simulation time: 0 hr 2 min 39 sec) 
Heartbeat CPU  0 instructions:   66000000 cycles:   43123608 heartbeat IPC: 1.53065 cumulative IPC: 1.53048 (Simulation time: 0 hr 2 min 42 sec) 
Heartbeat CPU  0 instructions:   67000001 cycles:   43777034 heartbeat IPC: 1.53040 cumulative IPC: 1.53048 (Simulation time: 0 hr 2 min 44 sec) 
Heartbeat CPU  0 instructions:   68000000 cycles:   44430294 heartbeat IPC: 1.53078 cumulative IPC: 1.53049 (Simulation time: 0 hr 2 min 47 sec) 
Heartbeat CPU  0 instructions:   69000002 cycles:   45083655 heartbeat IPC: 1.53055 cumulative IPC: 1.53049 (Simulation time: 0 hr 2 min 49 sec) 
Heartbeat CPU  0 instructions:   70000003 cycles:   45736944 heartbeat IPC: 1.53072 cumulative IPC: 1.53049 (Simulation time: 0 hr 2 min 52 sec) 
Heartbeat CPU  0 instructions:   71000003 cycles:   46390337 heartbeat IPC: 1.53047 cumulative IPC: 1.53049 (Simulation time: 0 hr 2 min 54 sec) 
Heartbeat CPU  0 instructions:   72000000 cycles:   47043706 heartbeat IPC: 1.53052 cumulative IPC: 1.53049 (Simulation time: 0 hr 2 min 57 sec) 
Heartbeat CPU  0 instructions:   73000002 cycles:   47697086 heartbeat IPC: 1.53051 cumulative IPC: 1.53049 (Simulation time: 0 hr 2 min 59 sec) 
Heartbeat CPU  0 instructions:   74000000 cycles:   48350427 heartbeat IPC: 1.53059 cumulative IPC: 1.53049 (Simulation time: 0 hr 3 min 2 sec) 
Heartbeat CPU  0 instructions:   75000000 cycles:   49003811 heartbeat IPC: 1.53049 cumulative IPC: 1.53049 (Simulation time: 0 hr 3 min 4 sec) 
Heartbeat CPU  0 instructions:   76000000 cycles:   49657186 heartbeat IPC: 1.53051 cumulative IPC: 1.53049 (Simulation time: 0 hr 3 min 7 sec) 
Heartbeat CPU  0 instructions:   77000000 cycles:   50310571 heartbeat IPC: 1.53049 cumulative IPC: 1.53049 (Simulation time: 0 hr 3 min 9 sec) 
Heartbeat CPU  0 instructions:   78000000 cycles:   50964058 heartbeat IPC: 1.53025 cumulative IPC: 1.53049 (Simulation time: 0 hr 3 min 12 sec) 
Heartbeat CPU  0 instructions:   79000000 cycles:   51617482 heartbeat IPC: 1.53040 cumulative IPC: 1.53049 (Simulation time: 0 hr 3 min 14 sec) 
Heartbeat CPU  0 instructions:   80000000 cycles:   52270861 heartbeat IPC: 1.53051 cumulative IPC: 1.53049 (Simulation time: 0 hr 3 min 16 sec) 
Heartbeat CPU  0 instructions:   81000001 cycles:   52924228 heartbeat IPC: 1.53053 cumulative IPC: 1.53049 (Simulation time: 0 hr 3 min 19 sec) 
Heartbeat CPU  0 instructions:   82000002 cycles:   53577682 heartbeat IPC: 1.53033 cumulative IPC: 1.53049 (Simulation time: 0 hr 3 min 21 sec) 
Heartbeat CPU  0 instructions:   83000003 cycles:   54230924 heartbeat IPC: 1.53083 cumulative IPC: 1.53049 (Simulation time: 0 hr 3 min 24 sec) 
Heartbeat CPU  0 instructions:   84000000 cycles:   54884132 heartbeat IPC: 1.53090 cumulative IPC: 1.53050 (Simulation time: 0 hr 3 min 26 sec) 
Heartbeat CPU  0 instructions:   85000001 cycles:   55537443 heartbeat IPC: 1.53067 cumulative IPC: 1.53050 (Simulation time: 0 hr 3 min 29 sec) 
Heartbeat CPU  0 instructions:   86000002 cycles:   56190661 heartbeat IPC: 1.53088 cumulative IPC: 1.53050 (Simulation time: 0 hr 3 min 31 sec) 
Heartbeat CPU  0 instructions:   87000003 cycles:   56843988 heartbeat IPC: 1.53063 cumulative IPC: 1.53050 (Simulation time: 0 hr 3 min 34 sec) 
Heartbeat CPU  0 instructions:   88000000 cycles:   57497108 heartbeat IPC: 1.53111 cumulative IPC: 1.53051 (Simulation time: 0 hr 3 min 36 sec) 
Heartbeat CPU  0 instructions:   89000001 cycles:   58150472 heartbeat IPC: 1.53054 cumulative IPC: 1.53051 (Simulation time: 0 hr 3 min 39 sec) 
Heartbeat CPU  0 instructions:   90000001 cycles:   58803747 heartbeat IPC: 1.53075 cumulative IPC: 1.53051 (Simulation time: 0 hr 3 min 41 sec) 
Heartbeat CPU  0 instructions:   91000000 cycles:   59457035 heartbeat IPC: 1.53072 cumulative IPC: 1.53052 (Simulation time: 0 hr 3 min 43 sec) 
Heartbeat CPU  0 instructions:   92000000 cycles:   60110231 heartbeat IPC: 1.53093 cumulative IPC: 1.53052 (Simulation time: 0 hr 3 min 46 sec) 
Heartbeat CPU  0 instructions:   93000002 cycles:   60763681 heartbeat IPC: 1.53034 cumulative IPC: 1.53052 (Simulation time: 0 hr 3 min 48 sec) 
Heartbeat CPU  0 instructions:   94000001 cycles:   61416971 heartbeat IPC: 1.53071 cumulative IPC: 1.53052 (Simulation time: 0 hr 3 min 51 sec) 
Heartbeat CPU  0 instructions:   95000000 cycles:   62070332 heartbeat IPC: 1.53055 cumulative IPC: 1.53052 (Simulation time: 0 hr 3 min 53 sec) 
Heartbeat CPU  0 instructions:   96000000 cycles:   62723655 heartbeat IPC: 1.53064 cumulative IPC: 1.53052 (Simulation time: 0 hr 3 min 56 sec) 
Heartbeat CPU  0 instructions:   97000001 cycles:   63377030 heartbeat IPC: 1.53052 cumulative IPC: 1.53052 (Simulation time: 0 hr 3 min 58 sec) 
Heartbeat CPU  0 instructions:   98000000 cycles:   64030496 heartbeat IPC: 1.53030 cumulative IPC: 1.53052 (Simulation time: 0 hr 4 min 1 sec) 
Heartbeat CPU  0 instructions:   99000001 cycles:   64683827 heartbeat IPC: 1.53062 cumulative IPC: 1.53052 (Simulation time: 0 hr 4 min 3 sec) 
Heartbeat CPU  0 instructions:  100000000 cycles:   65337235 heartbeat IPC: 1.53044 cumulative IPC: 1.53052 (Simulation time: 0 hr 4 min 6 sec) 

Warmup complete CPU  0 instructions:  100000001 cycles:   65337249 (Simulation time: 0 hr 4 min 6 sec) 

Heartbeat CPU  0 instructions:  101000002 cycles:   66211980 heartbeat IPC: 1.14319 cumulative IPC: 1.14321 (Simulation time: 0 hr 4 min 8 sec) 
Heartbeat CPU  0 instructions:  102000000 cycles:   67090330 heartbeat IPC: 1.13850 cumulative IPC: 1.14085 (Simulation time: 0 hr 4 min 11 sec) 
Heartbeat CPU  0 instructions:  103000003 cycles:   67972738 heartbeat IPC: 1.13327 cumulative IPC: 1.13831 (Simulation time: 0 hr 4 min 14 sec) 
Heartbeat CPU  0 instructions:  104000000 cycles:   68868376 heartbeat IPC: 1.11652 cumulative IPC: 1.13278 (Simulation time: 0 hr 4 min 17 sec) 
Heartbeat CPU  0 instructions:  105000000 cycles:   69768507 heartbeat IPC: 1.11095 cumulative IPC: 1.12835 (Simulation time: 0 hr 4 min 20 sec) 
Heartbeat CPU  0 instructions:  106000000 cycles:   70654043 heartbeat IPC: 1.12926 cumulative IPC: 1.12850 (Simulation time: 0 hr 4 min 23 sec) 
Heartbeat CPU  0 instructions:  107000000 cycles:   71542423 heartbeat IPC: 1.12564 cumulative IPC: 1.12809 (Simulation time: 0 hr 4 min 26 sec) 
Heartbeat CPU  0 instructions:  108000000 cycles:   72422093 heartbeat IPC: 1.13679 cumulative IPC: 1.12917 (Simulation time: 0 hr 4 min 29 sec) 
Heartbeat CPU  0 instructions:  109000000 cycles:   73301965 heartbeat IPC: 1.13653 cumulative IPC: 1.12998 (Simulation time: 0 hr 4 min 32 sec) 
Heartbeat CPU  0 instructions:  110000001 cycles:   74184006 heartbeat IPC: 1.13374 cumulative IPC: 1.13036 (Simulation time: 0 hr 4 min 35 sec) 
Heartbeat CPU  0 instructions:  111000001 cycles:   75062067 heartbeat IPC: 1.13887 cumulative IPC: 1.13113 (Simulation time: 0 hr 4 min 37 sec) 
Heartbeat CPU  0 instructions:  112000000 cycles:   75942622 heartbeat IPC: 1.13565 cumulative IPC: 1.13150 (Simulation time: 0 hr 4 min 40 sec) 
Heartbeat CPU  0 instructions:  113000002 cycles:   76825962 heartbeat IPC: 1.13207 cumulative IPC: 1.13155 (Simulation time: 0 hr 4 min 43 sec) 
Heartbeat CPU  0 instructions:  114000000 cycles:   77716174 heartbeat IPC: 1.12333 cumulative IPC: 1.13095 (Simulation time: 0 hr 4 min 46 sec) 
Heartbeat CPU  0 instructions:  115000001 cycles:   78602697 heartbeat IPC: 1.12800 cumulative IPC: 1.13076 (Simulation time: 0 hr 4 min 49 sec) 
Heartbeat CPU  0 instructions:  116000000 cycles:   79483128 heartbeat IPC: 1.13581 cumulative IPC: 1.13107 (Simulation time: 0 hr 4 min 52 sec) 
Heartbeat CPU  0 instructions:  117000001 cycles:   80361565 heartbeat IPC: 1.13839 cumulative IPC: 1.13150 (Simulation time: 0 hr 4 min 55 sec) 
Heartbeat CPU  0 instructions:  118000000 cycles:   81241253 heartbeat IPC: 1.13677 cumulative IPC: 1.13179 (Simulation time: 0 hr 4 min 58 sec) 
Heartbeat CPU  0 instructions:  119000003 cycles:   82115071 heartbeat IPC: 1.14441 cumulative IPC: 1.13245 (Simulation time: 0 hr 5 min 1 sec) 
Heartbeat CPU  0 instructions:  120000000 cycles:   83003632 heartbeat IPC: 1.12541 cumulative IPC: 1.13209 (Simulation time: 0 hr 5 min 3 sec) 
Heartbeat CPU  0 instructions:  121000000 cycles:   83891926 heartbeat IPC: 1.12575 cumulative IPC: 1.13179 (Simulation time: 0 hr 5 min 6 sec) 
Heartbeat CPU  0 instructions:  122000003 cycles:   84774453 heartbeat IPC: 1.13311 cumulative IPC: 1.13185 (Simulation time: 0 hr 5 min 9 sec) 
Heartbeat CPU  0 instructions:  123000000 cycles:   85657659 heartbeat IPC: 1.13224 cumulative IPC: 1.13187 (Simulation time: 0 hr 5 min 12 sec) 
Heartbeat CPU  0 instructions:  124000000 cycles:   86546457 heartbeat IPC: 1.12512 cumulative IPC: 1.13158 (Simulation time: 0 hr 5 min 15 sec) 
Heartbeat CPU  0 instructions:  125000000 cycles:   87440762 heartbeat IPC: 1.11819 cumulative IPC: 1.13104 (Simulation time: 0 hr 5 min 18 sec) 
Heartbeat CPU  0 instructions:  126000003 cycles:   88323455 heartbeat IPC: 1.13290 cumulative IPC: 1.13111 (Simulation time: 0 hr 5 min 21 sec) 
Heartbeat CPU  0 instructions:  127000001 cycles:   89212624 heartbeat IPC: 1.12464 cumulative IPC: 1.13087 (Simulation time: 0 hr 5 min 24 sec) 
Heartbeat CPU  0 instructions:  128000000 cycles:   90092648 heartbeat IPC: 1.13633 cumulative IPC: 1.13107 (Simulation time: 0 hr 5 min 27 sec) 
Heartbeat CPU  0 instructions:  129000002 cycles:   90970586 heartbeat IPC: 1.13903 cumulative IPC: 1.13134 (Simulation time: 0 hr 5 min 30 sec) 
Heartbeat CPU  0 instructions:  130000000 cycles:   91854463 heartbeat IPC: 1.13138 cumulative IPC: 1.13134 (Simulation time: 0 hr 5 min 32 sec) 
Heartbeat CPU  0 instructions:  131000002 cycles:   92751678 heartbeat IPC: 1.11456 cumulative IPC: 1.13079 (Simulation time: 0 hr 5 min 35 sec) 
Heartbeat CPU  0 instructions:  132000000 cycles:   93628984 heartbeat IPC: 1.13985 cumulative IPC: 1.13107 (Simulation time: 0 hr 5 min 38 sec) 
Heartbeat CPU  0 instructions:  133000002 cycles:   94508519 heartbeat IPC: 1.13697 cumulative IPC: 1.13125 (Simulation time: 0 hr 5 min 41 sec) 
Heartbeat CPU  0 instructions:  134000003 cycles:   95387710 heartbeat IPC: 1.13741 cumulative IPC: 1.13143 (Simulation time: 0 hr 5 min 44 sec) 
Heartbeat CPU  0 instructions:  135000003 cycles:   96266990 heartbeat IPC: 1.13729 cumulative IPC: 1.13160 (Simulation time: 0 hr 5 min 47 sec) 
Heartbeat CPU  0 instructions:  136000000 cycles:   97146114 heartbeat IPC: 1.13749 cumulative IPC: 1.13176 (Simulation time: 0 hr 5 min 50 sec) 
Heartbeat CPU  0 instructions:  137000002 cycles:   98023674 heartbeat IPC: 1.13953 cumulative IPC: 1.13197 (Simulation time: 0 hr 5 min 53 sec) 
Heartbeat CPU  0 instructions:  138000002 cycles:   98902273 heartbeat IPC: 1.13818 cumulative IPC: 1.13213 (Simulation time: 0 hr 5 min 56 sec) 
Heartbeat CPU  0 instructions:  139000000 cycles:   99777363 heartbeat IPC: 1.14274 cumulative IPC: 1.13240 (Simulation time: 0 hr 5 min 58 sec) 
Heartbeat CPU  0 instructions:  140000000 cycles:  100684029 heartbeat IPC: 1.10294 cumulative IPC: 1.13164 (Simulation time: 0 hr 6 min 1 sec) 
Heartbeat CPU  0 instructions:  141000001 cycles:  101580459 heartbeat IPC: 1.11554 cumulative IPC: 1.13125 (Simulation time: 0 hr 6 min 4 sec) 
Heartbeat CPU  0 instructions:  142000000 cycles:  102459819 heartbeat IPC: 1.13719 cumulative IPC: 1.13139 (Simulation time: 0 hr 6 min 7 sec) 
Heartbeat CPU  0 instructions:  143000002 cycles:  103332895 heartbeat IPC: 1.14538 cumulative IPC: 1.13171 (Simulation time: 0 hr 6 min 10 sec) 
Heartbeat CPU  0 instructions:  144000000 cycles:  104209608 heartbeat IPC: 1.14062 cumulative IPC: 1.13191 (Simulation time: 0 hr 6 min 13 sec) 
Heartbeat CPU  0 instructions:  145000001 cycles:  105090069 heartbeat IPC: 1.13577 cumulative IPC: 1.13200 (Simulation time: 0 hr 6 min 16 sec) 
Heartbeat CPU  0 instructions:  146000002 cycles:  105971509 heartbeat IPC: 1.13451 cumulative IPC: 1.13205 (Simulation time: 0 hr 6 min 19 sec) 
Heartbeat CPU  0 instructions:  147000002 cycles:  106849675 heartbeat IPC: 1.13874 cumulative IPC: 1.13219 (Simulation time: 0 hr 6 min 22 sec) 
Heartbeat CPU  0 instructions:  148000000 cycles:  107729228 heartbeat IPC: 1.13694 cumulative IPC: 1.13229 (Simulation time: 0 hr 6 min 25 sec) 
Heartbeat CPU  0 instructions:  149000002 cycles:  108629304 heartbeat IPC: 1.11102 cumulative IPC: 1.13185 (Simulation time: 0 hr 6 min 27 sec) 
Heartbeat CPU  0 instructions:  150000002 cycles:  109523201 heartbeat IPC: 1.11870 cumulative IPC: 1.13158 (Simulation time: 0 hr 6 min 30 sec) 
Heartbeat CPU  0 instructions:  151000002 cycles:  110401140 heartbeat IPC: 1.13903 cumulative IPC: 1.13173 (Simulation time: 0 hr 6 min 33 sec) 
Heartbeat CPU  0 instructions:  152000000 cycles:  111278606 heartbeat IPC: 1.13964 cumulative IPC: 1.13188 (Simulation time: 0 hr 6 min 36 sec) 
Heartbeat CPU  0 instructions:  153000003 cycles:  112159063 heartbeat IPC: 1.13578 cumulative IPC: 1.13195 (Simulation time: 0 hr 6 min 39 sec) 
Heartbeat CPU  0 instructions:  154000001 cycles:  113066017 heartbeat IPC: 1.10259 cumulative IPC: 1.13139 (Simulation time: 0 hr 6 min 42 sec) 
Heartbeat CPU  0 instructions:  155000003 cycles:  113960074 heartbeat IPC: 1.11850 cumulative IPC: 1.13116 (Simulation time: 0 hr 6 min 45 sec) 
Heartbeat CPU  0 instructions:  156000000 cycles:  114837111 heartbeat IPC: 1.14020 cumulative IPC: 1.13132 (Simulation time: 0 hr 6 min 48 sec) 
Heartbeat CPU  0 instructions:  157000001 cycles:  115716633 heartbeat IPC: 1.13698 cumulative IPC: 1.13142 (Simulation time: 0 hr 6 min 51 sec) 
Heartbeat CPU  0 instructions:  158000002 cycles:  116599129 heartbeat IPC: 1.13315 cumulative IPC: 1.13145 (Simulation time: 0 hr 6 min 54 sec) 
Heartbeat CPU  0 instructions:  159000001 cycles:  117476748 heartbeat IPC: 1.13945 cumulative IPC: 1.13158 (Simulation time: 0 hr 6 min 56 sec) 
Heartbeat CPU  0 instructions:  160000000 cycles:  118365028 heartbeat IPC: 1.12577 cumulative IPC: 1.13148 (Simulation time: 0 hr 6 min 59 sec) 
Heartbeat CPU  0 instructions:  161000000 cycles:  119246819 heartbeat IPC: 1.13406 cumulative IPC: 1.13152 (Simulation time: 0 hr 7 min 2 sec) 
Heartbeat CPU  0 instructions:  162000000 cycles:  120122814 heartbeat IPC: 1.14156 cumulative IPC: 1.13168 (Simulation time: 0 hr 7 min 5 sec) 
Heartbeat CPU  0 instructions:  163000002 cycles:  121001655 heartbeat IPC: 1.13786 cumulative IPC: 1.13178 (Simulation time: 0 hr 7 min 8 sec) 
Heartbeat CPU  0 instructions:  164000000 cycles:  121879432 heartbeat IPC: 1.13924 cumulative IPC: 1.13190 (Simulation time: 0 hr 7 min 11 sec) 
Heartbeat CPU  0 instructions:  165000000 cycles:  122767417 heartbeat IPC: 1.12615 cumulative IPC: 1.13181 (Simulation time: 0 hr 7 min 14 sec) 
Heartbeat CPU  0 instructions:  166000001 cycles:  123662309 heartbeat IPC: 1.11745 cumulative IPC: 1.13159 (Simulation time: 0 hr 7 min 17 sec) 
Heartbeat CPU  0 instructions:  167000001 cycles:  124537619 heartbeat IPC: 1.14245 cumulative IPC: 1.13175 (Simulation time: 0 hr 7 min 20 sec) 
Heartbeat CPU  0 instructions:  168000000 cycles:  125426723 heartbeat IPC: 1.12473 cumulative IPC: 1.13165 (Simulation time: 0 hr 7 min 22 sec) 
Heartbeat CPU  0 instructions:  169000002 cycles:  126309470 heartbeat IPC: 1.13283 cumulative IPC: 1.13166 (Simulation time: 0 hr 7 min 25 sec) 
Heartbeat CPU  0 instructions:  170000000 cycles:  127188027 heartbeat IPC: 1.13823 cumulative IPC: 1.13176 (Simulation time: 0 hr 7 min 28 sec) 
Heartbeat CPU  0 instructions:  171000000 cycles:  128083598 heartbeat IPC: 1.11661 cumulative IPC: 1.13154 (Simulation time: 0 hr 7 min 31 sec) 
Heartbeat CPU  0 instructions:  172000000 cycles:  128960660 heartbeat IPC: 1.14017 cumulative IPC: 1.13166 (Simulation time: 0 hr 7 min 34 sec) 
Heartbeat CPU  0 instructions:  173000000 cycles:  129838239 heartbeat IPC: 1.13950 cumulative IPC: 1.13177 (Simulation time: 0 hr 7 min 37 sec) 
Heartbeat CPU  0 instructions:  174000003 cycles:  130713180 heartbeat IPC: 1.14294 cumulative IPC: 1.13192 (Simulation time: 0 hr 7 min 40 sec) 
Heartbeat CPU  0 instructions:  175000002 cycles:  131610727 heartbeat IPC: 1.11415 cumulative IPC: 1.13167 (Simulation time: 0 hr 7 min 43 sec) 
Heartbeat CPU  0 instructions:  176000000 cycles:  132487742 heartbeat IPC: 1.14023 cumulative IPC: 1.13179 (Simulation time: 0 hr 7 min 46 sec) 
Heartbeat CPU  0 instructions:  177000003 cycles:  133360685 heartbeat IPC: 1.14555 cumulative IPC: 1.13196 (Simulation time: 0 hr 7 min 49 sec) 
Heartbeat CPU  0 instructions:  178000000 cycles:  134239116 heartbeat IPC: 1.13839 cumulative IPC: 1.13204 (Simulation time: 0 hr 7 min 51 sec) 
Heartbeat CPU  0 instructions:  179000001 cycles:  135126635 heartbeat IPC: 1.12674 cumulative IPC: 1.13198 (Simulation time: 0 hr 7 min 54 sec) 
Heartbeat CPU  0 instructions:  180000000 cycles:  136008762 heartbeat IPC: 1.13362 cumulative IPC: 1.13200 (Simulation time: 0 hr 7 min 57 sec) 
Heartbeat CPU  0 instructions:  181000002 cycles:  136891971 heartbeat IPC: 1.13224 cumulative IPC: 1.13200 (Simulation time: 0 hr 8 min 0 sec) 
Heartbeat CPU  0 instructions:  182000001 cycles:  137766154 heartbeat IPC: 1.14392 cumulative IPC: 1.13214 (Simulation time: 0 hr 8 min 3 sec) 
Heartbeat CPU  0 instructions:  183000003 cycles:  138648009 heartbeat IPC: 1.13398 cumulative IPC: 1.13217 (Simulation time: 0 hr 8 min 6 sec) 
Heartbeat CPU  0 instructions:  184000000 cycles:  139527554 heartbeat IPC: 1.13695 cumulative IPC: 1.13222 (Simulation time: 0 hr 8 min 9 sec) 
Heartbeat CPU  0 instructions:  185000003 cycles:  140422098 heartbeat IPC: 1.11789 cumulative IPC: 1.13205 (Simulation time: 0 hr 8 min 12 sec) 
Heartbeat CPU  0 instructions:  186000003 cycles:  141295097 heartbeat IPC: 1.14548 cumulative IPC: 1.13221 (Simulation time: 0 hr 8 min 15 sec) 
Heartbeat CPU  0 instructions:  187000002 cycles:  142174189 heartbeat IPC: 1.13754 cumulative IPC: 1.13227 (Simulation time: 0 hr 8 min 18 sec) 
Heartbeat CPU  0 instructions:  188000000 cycles:  143057696 heartbeat IPC: 1.13185 cumulative IPC: 1.13226 (Simulation time: 0 hr 8 min 20 sec) 
Heartbeat CPU  0 instructions:  189000000 cycles:  143936608 heartbeat IPC: 1.13777 cumulative IPC: 1.13232 (Simulation time: 0 hr 8 min 23 sec) 
Heartbeat CPU  0 instructions:  190000003 cycles:  144809572 heartbeat IPC: 1.14553 cumulative IPC: 1.13247 (Simulation time: 0 hr 8 min 26 sec) 
Heartbeat CPU  0 instructions:  191000000 cycles:  145687136 heartbeat IPC: 1.13951 cumulative IPC: 1.13255 (Simulation time: 0 hr 8 min 29 sec) 
Heartbeat CPU  0 instructions:  192000000 cycles:  146592891 heartbeat IPC: 1.10405 cumulative IPC: 1.13223 (Simulation time: 0 hr 8 min 32 sec) 
Heartbeat CPU  0 instructions:  193000002 cycles:  147471129 heartbeat IPC: 1.13865 cumulative IPC: 1.13230 (Simulation time: 0 hr 8 min 35 sec) 
Heartbeat CPU  0 instructions:  194000000 cycles:  148342814 heartbeat IPC: 1.14720 cumulative IPC: 1.13245 (Simulation time: 0 hr 8 min 38 sec) 
Heartbeat CPU  0 instructions:  195000003 cycles:  149234948 heartbeat IPC: 1.12091 cumulative IPC: 1.13233 (Simulation time: 0 hr 8 min 41 sec) 
Heartbeat CPU  0 instructions:  196000000 cycles:  150134598 heartbeat IPC: 1.11154 cumulative IPC: 1.13211 (Simulation time: 0 hr 8 min 44 sec) 
Heartbeat CPU  0 instructions:  197000000 cycles:  151004152 heartbeat IPC: 1.15001 cumulative IPC: 1.13229 (Simulation time: 0 hr 8 min 46 sec) 
Heartbeat CPU  0 instructions:  198000001 cycles:  151887476 heartbeat IPC: 1.13209 cumulative IPC: 1.13229 (Simulation time: 0 hr 8 min 49 sec) 
Heartbeat CPU  0 instructions:  199000003 cycles:  152789759 heartbeat IPC: 1.10830 cumulative IPC: 1.13204 (Simulation time: 0 hr 8 min 52 sec) 
Heartbeat CPU  0 instructions:  200000000 cycles:  153669330 heartbeat IPC: 1.13691 cumulative IPC: 1.13209 (Simulation time: 0 hr 8 min 55 sec) 
Heartbeat CPU  0 instructions:  201000002 cycles:  154552134 heartbeat IPC: 1.13276 cumulative IPC: 1.13210 (Simulation time: 0 hr 8 min 58 sec) 
Heartbeat CPU  0 instructions:  202000002 cycles:  155428344 heartbeat IPC: 1.14128 cumulative IPC: 1.13219 (Simulation time: 0 hr 9 min 1 sec) 
Heartbeat CPU  0 instructions:  203000003 cycles:  156306193 heartbeat IPC: 1.13915 cumulative IPC: 1.13225 (Simulation time: 0 hr 9 min 4 sec) 
Heartbeat CPU  0 instructions:  204000000 cycles:  157184333 heartbeat IPC: 1.13877 cumulative IPC: 1.13232 (Simulation time: 0 hr 9 min 7 sec) 
Heartbeat CPU  0 instructions:  205000002 cycles:  158059901 heartbeat IPC: 1.14212 cumulative IPC: 1.13241 (Simulation time: 0 hr 9 min 10 sec) 
Heartbeat CPU  0 instructions:  206000003 cycles:  158940428 heartbeat IPC: 1.13568 cumulative IPC: 1.13244 (Simulation time: 0 hr 9 min 12 sec) 
Heartbeat CPU  0 instructions:  207000001 cycles:  159817885 heartbeat IPC: 1.13965 cumulative IPC: 1.13251 (Simulation time: 0 hr 9 min 15 sec) 
Heartbeat CPU  0 instructions:  208000000 cycles:  160709526 heartbeat IPC: 1.12153 cumulative IPC: 1.13240 (Simulation time: 0 hr 9 min 18 sec) 
Heartbeat CPU  0 instructions:  209000001 cycles:  161585713 heartbeat IPC: 1.14131 cumulative IPC: 1.13249 (Simulation time: 0 hr 9 min 21 sec) 
Heartbeat CPU  0 instructions:  210000000 cycles:  162465859 heartbeat IPC: 1.13617 cumulative IPC: 1.13252 (Simulation time: 0 hr 9 min 24 sec) 
Heartbeat CPU  0 instructions:  211000002 cycles:  163347601 heartbeat IPC: 1.13412 cumulative IPC: 1.13253 (Simulation time: 0 hr 9 min 27 sec) 
Heartbeat CPU  0 instructions:  212000000 cycles:  164226196 heartbeat IPC: 1.13818 cumulative IPC: 1.13258 (Simulation time: 0 hr 9 min 30 sec) 
Heartbeat CPU  0 instructions:  213000000 cycles:  165105028 heartbeat IPC: 1.13787 cumulative IPC: 1.13263 (Simulation time: 0 hr 9 min 33 sec) 
Heartbeat CPU  0 instructions:  214000003 cycles:  165984970 heartbeat IPC: 1.13644 cumulative IPC: 1.13266 (Simulation time: 0 hr 9 min 36 sec) 
Heartbeat CPU  0 instructions:  215000001 cycles:  166870138 heartbeat IPC: 1.12973 cumulative IPC: 1.13264 (Simulation time: 0 hr 9 min 39 sec) 
Heartbeat CPU  0 instructions:  216000000 cycles:  167760003 heartbeat IPC: 1.12376 cumulative IPC: 1.13256 (Simulation time: 0 hr 9 min 41 sec) 
Heartbeat CPU  0 instructions:  217000003 cycles:  168633583 heartbeat IPC: 1.14472 cumulative IPC: 1.13266 (Simulation time: 0 hr 9 min 44 sec) 
Heartbeat CPU  0 instructions:  218000001 cycles:  169510977 heartbeat IPC: 1.13974 cumulative IPC: 1.13272 (Simulation time: 0 hr 9 min 47 sec) 
Heartbeat CPU  0 instructions:  219000000 cycles:  170386112 heartbeat IPC: 1.14268 cumulative IPC: 1.13281 (Simulation time: 0 hr 9 min 50 sec) 
Heartbeat CPU  0 instructions:  220000000 cycles:  171263679 heartbeat IPC: 1.13951 cumulative IPC: 1.13286 (Simulation time: 0 hr 9 min 53 sec) 
Heartbeat CPU  0 instructions:  221000000 cycles:  172150717 heartbeat IPC: 1.12735 cumulative IPC: 1.13282 (Simulation time: 0 hr 9 min 56 sec) 
Heartbeat CPU  0 instructions:  222000001 cycles:  173043095 heartbeat IPC: 1.12060 cumulative IPC: 1.13271 (Simulation time: 0 hr 9 min 59 sec) 
Heartbeat CPU  0 instructions:  223000003 cycles:  173934178 heartbeat IPC: 1.12223 cumulative IPC: 1.13263 (Simulation time: 0 hr 10 min 2 sec) 
Heartbeat CPU  0 instructions:  224000000 cycles:  174829555 heartbeat IPC: 1.11684 cumulative IPC: 1.13250 (Simulation time: 0 hr 10 min 5 sec) 
Heartbeat CPU  0 instructions:  225000001 cycles:  175719006 heartbeat IPC: 1.12429 cumulative IPC: 1.13243 (Simulation time: 0 hr 10 min 8 sec) 
Heartbeat CPU  0 instructions:  226000002 cycles:  176614953 heartbeat IPC: 1.11614 cumulative IPC: 1.13230 (Simulation time: 0 hr 10 min 11 sec) 
Heartbeat CPU  0 instructions:  227000002 cycles:  177516960 heartbeat IPC: 1.10864 cumulative IPC: 1.13211 (Simulation time: 0 hr 10 min 13 sec) 
Heartbeat CPU  0 instructions:  228000000 cycles:  178399404 heartbeat IPC: 1.13321 cumulative IPC: 1.13212 (Simulation time: 0 hr 10 min 16 sec) 
Heartbeat CPU  0 instructions:  229000000 cycles:  179280095 heartbeat IPC: 1.13547 cumulative IPC: 1.13215 (Simulation time: 0 hr 10 min 19 sec) 
Heartbeat CPU  0 instructions:  230000001 cycles:  180186222 heartbeat IPC: 1.10360 cumulative IPC: 1.13192 (Simulation time: 0 hr 10 min 22 sec) 
Heartbeat CPU  0 instructions:  231000001 cycles:  181101743 heartbeat IPC: 1.09227 cumulative IPC: 1.13161 (Simulation time: 0 hr 10 min 25 sec) 
Heartbeat CPU  0 instructions:  232000000 cycles:  181986133 heartbeat IPC: 1.13072 cumulative IPC: 1.13160 (Simulation time: 0 hr 10 min 28 sec) 
Heartbeat CPU  0 instructions:  233000002 cycles:  182876454 heartbeat IPC: 1.12319 cumulative IPC: 1.13154 (Simulation time: 0 hr 10 min 31 sec) 
Heartbeat CPU  0 instructions:  234000001 cycles:  183757838 heartbeat IPC: 1.13458 cumulative IPC: 1.13156 (Simulation time: 0 hr 10 min 34 sec) 
Heartbeat CPU  0 instructions:  235000000 cycles:  184641997 heartbeat IPC: 1.13102 cumulative IPC: 1.13156 (Simulation time: 0 hr 10 min 37 sec) 
Heartbeat CPU  0 instructions:  236000000 cycles:  185517421 heartbeat IPC: 1.14230 cumulative IPC: 1.13163 (Simulation time: 0 hr 10 min 40 sec) 
Heartbeat CPU  0 instructions:  237000001 cycles:  186416224 heartbeat IPC: 1.11259 cumulative IPC: 1.13149 (Simulation time: 0 hr 10 min 43 sec) 
Heartbeat CPU  0 instructions:  238000003 cycles:  187300664 heartbeat IPC: 1.13066 cumulative IPC: 1.13149 (Simulation time: 0 hr 10 min 45 sec) 
Heartbeat CPU  0 instructions:  239000001 cycles:  188203305 heartbeat IPC: 1.10786 cumulative IPC: 1.13131 (Simulation time: 0 hr 10 min 48 sec) 
Heartbeat CPU  0 instructions:  240000000 cycles:  189078890 heartbeat IPC: 1.14209 cumulative IPC: 1.13139 (Simulation time: 0 hr 10 min 51 sec) 
Heartbeat CPU  0 instructions:  241000000 cycles:  189963707 heartbeat IPC: 1.13018 cumulative IPC: 1.13138 (Simulation time: 0 hr 10 min 54 sec) 
Heartbeat CPU  0 instructions:  242000000 cycles:  190852398 heartbeat IPC: 1.12525 cumulative IPC: 1.13134 (Simulation time: 0 hr 10 min 57 sec) 
Heartbeat CPU  0 instructions:  243000003 cycles:  191733983 heartbeat IPC: 1.13432 cumulative IPC: 1.13136 (Simulation time: 0 hr 11 min 0 sec) 
Heartbeat CPU  0 instructions:  244000000 cycles:  192607791 heartbeat IPC: 1.14441 cumulative IPC: 1.13145 (Simulation time: 0 hr 11 min 3 sec) 
Heartbeat CPU  0 instructions:  245000000 cycles:  193496359 heartbeat IPC: 1.12541 cumulative IPC: 1.13141 (Simulation time: 0 hr 11 min 6 sec) 
Heartbeat CPU  0 instructions:  246000001 cycles:  194377530 heartbeat IPC: 1.13485 cumulative IPC: 1.13143 (Simulation time: 0 hr 11 min 9 sec) 
Heartbeat CPU  0 instructions:  247000000 cycles:  195255525 heartbeat IPC: 1.13896 cumulative IPC: 1.13148 (Simulation time: 0 hr 11 min 11 sec) 
Heartbeat CPU  0 instructions:  248000000 cycles:  196135563 heartbeat IPC: 1.13631 cumulative IPC: 1.13151 (Simulation time: 0 hr 11 min 14 sec) 
Heartbeat CPU  0 instructions:  249000000 cycles:  197013807 heartbeat IPC: 1.13864 cumulative IPC: 1.13156 (Simulation time: 0 hr 11 min 17 sec) 
Heartbeat CPU  0 instructions:  250000003 cycles:  197905777 heartbeat IPC: 1.12112 cumulative IPC: 1.13149 (Simulation time: 0 hr 11 min 20 sec) 
Heartbeat CPU  0 instructions:  251000001 cycles:  198787754 heartbeat IPC: 1.13381 cumulative IPC: 1.13151 (Simulation time: 0 hr 11 min 23 sec) 
Heartbeat CPU  0 instructions:  252000000 cycles:  199663934 heartbeat IPC: 1.14132 cumulative IPC: 1.13157 (Simulation time: 0 hr 11 min 26 sec) 
Heartbeat CPU  0 instructions:  253000001 cycles:  200545936 heartbeat IPC: 1.13379 cumulative IPC: 1.13158 (Simulation time: 0 hr 11 min 29 sec) 
Heartbeat CPU  0 instructions:  254000003 cycles:  201421760 heartbeat IPC: 1.14178 cumulative IPC: 1.13165 (Simulation time: 0 hr 11 min 32 sec) 
Heartbeat CPU  0 instructions:  255000002 cycles:  202299417 heartbeat IPC: 1.13940 cumulative IPC: 1.13170 (Simulation time: 0 hr 11 min 35 sec) 
Heartbeat CPU  0 instructions:  256000000 cycles:  203178881 heartbeat IPC: 1.13705 cumulative IPC: 1.13173 (Simulation time: 0 hr 11 min 38 sec) 
Heartbeat CPU  0 instructions:  257000002 cycles:  204074289 heartbeat IPC: 1.11681 cumulative IPC: 1.13164 (Simulation time: 0 hr 11 min 40 sec) 
Heartbeat CPU  0 instructions:  258000002 cycles:  204954036 heartbeat IPC: 1.13669 cumulative IPC: 1.13167 (Simulation time: 0 hr 11 min 43 sec) 
Heartbeat CPU  0 instructions:  259000001 cycles:  205836693 heartbeat IPC: 1.13294 cumulative IPC: 1.13168 (Simulation time: 0 hr 11 min 46 sec) 
Heartbeat CPU  0 instructions:  260000000 cycles:  206714745 heartbeat IPC: 1.13888 cumulative IPC: 1.13172 (Simulation time: 0 hr 11 min 49 sec) 
Heartbeat CPU  0 instructions:  261000003 cycles:  207594655 heartbeat IPC: 1.13648 cumulative IPC: 1.13175 (Simulation time: 0 hr 11 min 52 sec) 
Heartbeat CPU  0 instructions:  262000003 cycles:  208482115 heartbeat IPC: 1.12681 cumulative IPC: 1.13172 (Simulation time: 0 hr 11 min 55 sec) 
Heartbeat CPU  0 instructions:  263000000 cycles:  209362221 heartbeat IPC: 1.13622 cumulative IPC: 1.13175 (Simulation time: 0 hr 11 min 58 sec) 
Heartbeat CPU  0 instructions:  264000000 cycles:  210237007 heartbeat IPC: 1.14314 cumulative IPC: 1.13182 (Simulation time: 0 hr 12 min 1 sec) 
Heartbeat CPU  0 instructions:  265000000 cycles:  211115763 heartbeat IPC: 1.13797 cumulative IPC: 1.13185 (Simulation time: 0 hr 12 min 4 sec) 
Heartbeat CPU  0 instructions:  266000003 cycles:  212000612 heartbeat IPC: 1.13014 cumulative IPC: 1.13184 (Simulation time: 0 hr 12 min 6 sec) 
Heartbeat CPU  0 instructions:  267000001 cycles:  212877766 heartbeat IPC: 1.14005 cumulative IPC: 1.13189 (Simulation time: 0 hr 12 min 9 sec) 
Heartbeat CPU  0 instructions:  268000000 cycles:  213763480 heartbeat IPC: 1.12903 cumulative IPC: 1.13188 (Simulation time: 0 hr 12 min 12 sec) 
Heartbeat CPU  0 instructions:  269000003 cycles:  214641054 heartbeat IPC: 1.13951 cumulative IPC: 1.13192 (Simulation time: 0 hr 12 min 15 sec) 
Heartbeat CPU  0 instructions:  270000003 cycles:  215518042 heartbeat IPC: 1.14027 cumulative IPC: 1.13197 (Simulation time: 0 hr 12 min 18 sec) 
Heartbeat CPU  0 instructions:  271000002 cycles:  216397808 heartbeat IPC: 1.13666 cumulative IPC: 1.13200 (Simulation time: 0 hr 12 min 21 sec) 
Heartbeat CPU  0 instructions:  272000000 cycles:  217271924 heartbeat IPC: 1.14401 cumulative IPC: 1.13207 (Simulation time: 0 hr 12 min 24 sec) 
Heartbeat CPU  0 instructions:  273000002 cycles:  218153775 heartbeat IPC: 1.13398 cumulative IPC: 1.13208 (Simulation time: 0 hr 12 min 27 sec) 
Heartbeat CPU  0 instructions:  274000000 cycles:  219029877 heartbeat IPC: 1.14142 cumulative IPC: 1.13213 (Simulation time: 0 hr 12 min 30 sec) 
Heartbeat CPU  0 instructions:  275000003 cycles:  219909706 heartbeat IPC: 1.13659 cumulative IPC: 1.13216 (Simulation time: 0 hr 12 min 33 sec) 
Heartbeat CPU  0 instructions:  276000000 cycles:  220791679 heartbeat IPC: 1.13382 cumulative IPC: 1.13216 (Simulation time: 0 hr 12 min 35 sec) 
Heartbeat CPU  0 instructions:  277000001 cycles:  221668663 heartbeat IPC: 1.14027 cumulative IPC: 1.13221 (Simulation time: 0 hr 12 min 38 sec) 
Heartbeat CPU  0 instructions:  278000002 cycles:  222556838 heartbeat IPC: 1.12591 cumulative IPC: 1.13217 (Simulation time: 0 hr 12 min 41 sec) 
Heartbeat CPU  0 instructions:  279000000 cycles:  223428187 heartbeat IPC: 1.14764 cumulative IPC: 1.13226 (Simulation time: 0 hr 12 min 44 sec) 
Heartbeat CPU  0 instructions:  280000000 cycles:  224315497 heartbeat IPC: 1.12700 cumulative IPC: 1.13223 (Simulation time: 0 hr 12 min 47 sec) 
Heartbeat CPU  0 instructions:  281000001 cycles:  225191239 heartbeat IPC: 1.14189 cumulative IPC: 1.13228 (Simulation time: 0 hr 12 min 50 sec) 
Heartbeat CPU  0 instructions:  282000002 cycles:  226077943 heartbeat IPC: 1.12777 cumulative IPC: 1.13226 (Simulation time: 0 hr 12 min 53 sec) 
Heartbeat CPU  0 instructions:  283000000 cycles:  226980259 heartbeat IPC: 1.10826 cumulative IPC: 1.13212 (Simulation time: 0 hr 12 min 56 sec) 
Heartbeat CPU  0 instructions:  284000000 cycles:  227855928 heartbeat IPC: 1.14198 cumulative IPC: 1.13218 (Simulation time: 0 hr 12 min 58 sec) 
Heartbeat CPU  0 instructions:  285000002 cycles:  228734130 heartbeat IPC: 1.13869 cumulative IPC: 1.13221 (Simulation time: 0 hr 13 min 1 sec) 
Heartbeat CPU  0 instructions:  286000000 cycles:  229651869 heartbeat IPC: 1.08963 cumulative IPC: 1.13197 (Simulation time: 0 hr 13 min 4 sec) 
Heartbeat CPU  0 instructions:  287000001 cycles:  230554745 heartbeat IPC: 1.10757 cumulative IPC: 1.13184 (Simulation time: 0 hr 13 min 7 sec) 
Heartbeat CPU  0 instructions:  288000000 cycles:  231448585 heartbeat IPC: 1.11877 cumulative IPC: 1.13177 (Simulation time: 0 hr 13 min 10 sec) 
Heartbeat CPU  0 instructions:  289000003 cycles:  232325622 heartbeat IPC: 1.14021 cumulative IPC: 1.13182 (Simulation time: 0 hr 13 min 13 sec) 
Heartbeat CPU  0 instructions:  290000003 cycles:  233198932 heartbeat IPC: 1.14507 cumulative IPC: 1.13188 (Simulation time: 0 hr 13 min 16 sec) 
Heartbeat CPU  0 instructions:  291000003 cycles:  234077219 heartbeat IPC: 1.13858 cumulative IPC: 1.13192 (Simulation time: 0 hr 13 min 19 sec) 
Heartbeat CPU  0 instructions:  292000000 cycles:  234956222 heartbeat IPC: 1.13765 cumulative IPC: 1.13195 (Simulation time: 0 hr 13 min 22 sec) 
Heartbeat CPU  0 instructions:  293000000 cycles:  235836249 heartbeat IPC: 1.13633 cumulative IPC: 1.13197 (Simulation time: 0 hr 13 min 25 sec) 
Heartbeat CPU  0 instructions:  294000001 cycles:  236729871 heartbeat IPC: 1.11904 cumulative IPC: 1.13190 (Simulation time: 0 hr 13 min 28 sec) 
Heartbeat CPU  0 instructions:  295000000 cycles:  237637214 heartbeat IPC: 1.10212 cumulative IPC: 1.13175 (Simulation time: 0 hr 13 min 30 sec) 
Heartbeat CPU  0 instructions:  296000000 cycles:  238525813 heartbeat IPC: 1.12537 cumulative IPC: 1.13171 (Simulation time: 0 hr 13 min 33 sec) 
Heartbeat CPU  0 instructions:  297000000 cycles:  239402547 heartbeat IPC: 1.14060 cumulative IPC: 1.13176 (Simulation time: 0 hr 13 min 36 sec) 
Heartbeat CPU  0 instructions:  298000002 cycles:  240287559 heartbeat IPC: 1.12993 cumulative IPC: 1.13175 (Simulation time: 0 hr 13 min 39 sec) 
Heartbeat CPU  0 instructions:  299000000 cycles:  241200597 heartbeat IPC: 1.09524 cumulative IPC: 1.13156 (Simulation time: 0 hr 13 min 42 sec) 
Heartbeat CPU  0 instructions:  300000000 cycles:  242091100 heartbeat IPC: 1.12296 cumulative IPC: 1.13152 (Simulation time: 0 hr 13 min 45 sec) 
Heartbeat CPU  0 instructions:  301000001 cycles:  242967318 heartbeat IPC: 1.14127 cumulative IPC: 1.13157 (Simulation time: 0 hr 13 min 48 sec) 
Heartbeat CPU  0 instructions:  302000000 cycles:  243844142 heartbeat IPC: 1.14048 cumulative IPC: 1.13161 (Simulation time: 0 hr 13 min 51 sec) 
Heartbeat CPU  0 instructions:  303000002 cycles:  244721082 heartbeat IPC: 1.14033 cumulative IPC: 1.13165 (Simulation time: 0 hr 13 min 54 sec) 
Heartbeat CPU  0 instructions:  304000000 cycles:  245594587 heartbeat IPC: 1.14481 cumulative IPC: 1.13172 (Simulation time: 0 hr 13 min 56 sec) 
Heartbeat CPU  0 instructions:  305000002 cycles:  246470167 heartbeat IPC: 1.14210 cumulative IPC: 1.13177 (Simulation time: 0 hr 13 min 59 sec) 
Heartbeat CPU  0 instructions:  306000001 cycles:  247351309 heartbeat IPC: 1.13489 cumulative IPC: 1.13178 (Simulation time: 0 hr 14 min 2 sec) 
Heartbeat CPU  0 instructions:  307000001 cycles:  248222385 heartbeat IPC: 1.14801 cumulative IPC: 1.13186 (Simulation time: 0 hr 14 min 5 sec) 
Heartbeat CPU  0 instructions:  308000000 cycles:  249106450 heartbeat IPC: 1.13114 cumulative IPC: 1.13185 (Simulation time: 0 hr 14 min 8 sec) 
Heartbeat CPU  0 instructions:  309000000 cycles:  249984013 heartbeat IPC: 1.13952 cumulative IPC: 1.13189 (Simulation time: 0 hr 14 min 11 sec) 
Heartbeat CPU  0 instructions:  310000000 cycles:  250863379 heartbeat IPC: 1.13718 cumulative IPC: 1.13192 (Simulation time: 0 hr 14 min 14 sec) 
Heartbeat CPU  0 instructions:  311000000 cycles:  251736903 heartbeat IPC: 1.14479 cumulative IPC: 1.13198 (Simulation time: 0 hr 14 min 17 sec) 
Heartbeat CPU  0 instructions:  312000000 cycles:  252616376 heartbeat IPC: 1.13704 cumulative IPC: 1.13200 (Simulation time: 0 hr 14 min 19 sec) 
Heartbeat CPU  0 instructions:  313000002 cycles:  253496467 heartbeat IPC: 1.13625 cumulative IPC: 1.13202 (Simulation time: 0 hr 14 min 22 sec) 
Heartbeat CPU  0 instructions:  314000001 cycles:  254402591 heartbeat IPC: 1.10360 cumulative IPC: 1.13188 (Simulation time: 0 hr 14 min 25 sec) 
Heartbeat CPU  0 instructions:  315000001 cycles:  255279868 heartbeat IPC: 1.13989 cumulative IPC: 1.13192 (Simulation time: 0 hr 14 min 28 sec) 
Heartbeat CPU  0 instructions:  316000000 cycles:  256153916 heartbeat IPC: 1.14410 cumulative IPC: 1.13198 (Simulation time: 0 hr 14 min 31 sec) 
Heartbeat CPU  0 instructions:  317000000 cycles:  257036364 heartbeat IPC: 1.13321 cumulative IPC: 1.13198 (Simulation time: 0 hr 14 min 34 sec) 
Heartbeat CPU  0 instructions:  318000001 cycles:  257912812 heartbeat IPC: 1.14097 cumulative IPC: 1.13202 (Simulation time: 0 hr 14 min 37 sec) 
Heartbeat CPU  0 instructions:  319000000 cycles:  258636176 heartbeat IPC: 1.38243 cumulative IPC: 1.13296 (Simulation time: 0 hr 14 min 39 sec) 
Heartbeat CPU  0 instructions:  320000000 cycles:  259340101 heartbeat IPC: 1.42061 cumulative IPC: 1.13400 (Simulation time: 0 hr 14 min 41 sec) 
Heartbeat CPU  0 instructions:  321000003 cycles:  260051276 heartbeat IPC: 1.40613 cumulative IPC: 1.13500 (Simulation time: 0 hr 14 min 43 sec) 
Heartbeat CPU  0 instructions:  322000002 cycles:  260763625 heartbeat IPC: 1.40380 cumulative IPC: 1.13598 (Simulation time: 0 hr 14 min 45 sec) 
Heartbeat CPU  0 instructions:  323000000 cycles:  261476307 heartbeat IPC: 1.40315 cumulative IPC: 1.13695 (Simulation time: 0 hr 14 min 47 sec) 
Heartbeat CPU  0 instructions:  324000000 cycles:  262188736 heartbeat IPC: 1.40365 cumulative IPC: 1.13791 (Simulation time: 0 hr 14 min 49 sec) 
Heartbeat CPU  0 instructions:  325000003 cycles:  262898171 heartbeat IPC: 1.40958 cumulative IPC: 1.13889 (Simulation time: 0 hr 14 min 51 sec) 
Heartbeat CPU  0 instructions:  326000003 cycles:  263604527 heartbeat IPC: 1.41572 cumulative IPC: 1.13988 (Simulation time: 0 hr 14 min 53 sec) 
Heartbeat CPU  0 instructions:  327000001 cycles:  264316809 heartbeat IPC: 1.40394 cumulative IPC: 1.14082 (Simulation time: 0 hr 14 min 55 sec) 
Heartbeat CPU  0 instructions:  328000000 cycles:  265028397 heartbeat IPC: 1.40531 cumulative IPC: 1.14176 (Simulation time: 0 hr 14 min 57 sec) 
Heartbeat CPU  0 instructions:  329000002 cycles:  265740819 heartbeat IPC: 1.40367 cumulative IPC: 1.14269 (Simulation time: 0 hr 14 min 59 sec) 
Heartbeat CPU  0 instructions:  330000000 cycles:  266452748 heartbeat IPC: 1.40463 cumulative IPC: 1.14362 (Simulation time: 0 hr 15 min 1 sec) 
Heartbeat CPU  0 instructions:  331000003 cycles:  267165610 heartbeat IPC: 1.40280 cumulative IPC: 1.14454 (Simulation time: 0 hr 15 min 3 sec) 
Heartbeat CPU  0 instructions:  332000000 cycles:  267875187 heartbeat IPC: 1.40929 cumulative IPC: 1.14546 (Simulation time: 0 hr 15 min 5 sec) 
Heartbeat CPU  0 instructions:  333000001 cycles:  268564000 heartbeat IPC: 1.45177 cumulative IPC: 1.14650 (Simulation time: 0 hr 15 min 7 sec) 
Heartbeat CPU  0 instructions:  334000003 cycles:  269183332 heartbeat IPC: 1.61465 cumulative IPC: 1.14792 (Simulation time: 0 hr 15 min 9 sec) 
Heartbeat CPU  0 instructions:  335000003 cycles:  269823264 heartbeat IPC: 1.56267 cumulative IPC: 1.14922 (Simulation time: 0 hr 15 min 11 sec) 
Heartbeat CPU  0 instructions:  336000000 cycles:  270510339 heartbeat IPC: 1.45544 cumulative IPC: 1.15025 (Simulation time: 0 hr 15 min 13 sec) 
Heartbeat CPU  0 instructions:  337000002 cycles:  271241931 heartbeat IPC: 1.36688 cumulative IPC: 1.15102 (Simulation time: 0 hr 15 min 15 sec) 
Heartbeat CPU  0 instructions:  338000000 cycles:  271983423 heartbeat IPC: 1.34863 cumulative IPC: 1.15173 (Simulation time: 0 hr 15 min 17 sec) 
Heartbeat CPU  0 instructions:  339000002 cycles:  272727370 heartbeat IPC: 1.34418 cumulative IPC: 1.15242 (Simulation time: 0 hr 15 min 19 sec) 
Heartbeat CPU  0 instructions:  340000000 cycles:  273502523 heartbeat IPC: 1.29007 cumulative IPC: 1.15293 (Simulation time: 0 hr 15 min 22 sec) 
Heartbeat CPU  0 instructions:  341000001 cycles:  274300414 heartbeat IPC: 1.25331 cumulative IPC: 1.15331 (Simulation time: 0 hr 15 min 24 sec) 
Heartbeat CPU  0 instructions:  342000001 cycles:  275115615 heartbeat IPC: 1.22669 cumulative IPC: 1.15360 (Simulation time: 0 hr 15 min 26 sec) 
Heartbeat CPU  0 instructions:  343000000 cycles:  275925007 heartbeat IPC: 1.23549 cumulative IPC: 1.15391 (Simulation time: 0 hr 15 min 28 sec) 
Heartbeat CPU  0 instructions:  344000000 cycles:  276746210 heartbeat IPC: 1.21773 cumulative IPC: 1.15416 (Simulation time: 0 hr 15 min 30 sec) 
Heartbeat CPU  0 instructions:  345000002 cycles:  277555555 heartbeat IPC: 1.23557 cumulative IPC: 1.15447 (Simulation time: 0 hr 15 min 33 sec) 
Heartbeat CPU  0 instructions:  346000003 cycles:  278359856 heartbeat IPC: 1.24332 cumulative IPC: 1.15481 (Simulation time: 0 hr 15 min 35 sec) 
Heartbeat CPU  0 instructions:  347000003 cycles:  279176706 heartbeat IPC: 1.22422 cumulative IPC: 1.15507 (Simulation time: 0 hr 15 min 37 sec) 
Heartbeat CPU  0 instructions:  348000000 cycles:  279991069 heartbeat IPC: 1.22795 cumulative IPC: 1.15535 (Simulation time: 0 hr 15 min 39 sec) 
Heartbeat CPU  0 instructions:  349000002 cycles:  280812202 heartbeat IPC: 1.21783 cumulative IPC: 1.15559 (Simulation time: 0 hr 15 min 41 sec) 
Heartbeat CPU  0 instructions:  350000000 cycles:  281619710 heartbeat IPC: 1.23838 cumulative IPC: 1.15590 (Simulation time: 0 hr 15 min 44 sec) 
Heartbeat CPU  0 instructions:  351000001 cycles:  282543326 heartbeat IPC: 1.08270 cumulative IPC: 1.15558 (Simulation time: 0 hr 15 min 46 sec) 
Heartbeat CPU  0 instructions:  352000000 cycles:  283424172 heartbeat IPC: 1.13527 cumulative IPC: 1.15550 (Simulation time: 0 hr 15 min 49 sec) 
Heartbeat CPU  0 instructions:  353000002 cycles:  284317439 heartbeat IPC: 1.11949 cumulative IPC: 1.15536 (Simulation time: 0 hr 15 min 52 sec) 
Heartbeat CPU  0 instructions:  354000001 cycles:  285196959 heartbeat IPC: 1.13698 cumulative IPC: 1.15528 (Simulation time: 0 hr 15 min 55 sec) 
Heartbeat CPU  0 instructions:  355000002 cycles:  286072252 heartbeat IPC: 1.14248 cumulative IPC: 1.15523 (Simulation time: 0 hr 15 min 58 sec) 
Heartbeat CPU  0 instructions:  356000000 cycles:  286960092 heartbeat IPC: 1.12633 cumulative IPC: 1.15512 (Simulation time: 0 hr 16 min 1 sec) 
Heartbeat CPU  0 instructions:  357000001 cycles:  287842744 heartbeat IPC: 1.13295 cumulative IPC: 1.15503 (Simulation time: 0 hr 16 min 4 sec) 
Heartbeat CPU  0 instructions:  358000002 cycles:  288724823 heartbeat IPC: 1.13369 cumulative IPC: 1.15494 (Simulation time: 0 hr 16 min 7 sec) 
Heartbeat CPU  0 instructions:  359000003 cycles:  289610075 heartbeat IPC: 1.12962 cumulative IPC: 1.15484 (Simulation time: 0 hr 16 min 10 sec) 
Heartbeat CPU  0 instructions:  360000000 cycles:  290494258 heartbeat IPC: 1.13098 cumulative IPC: 1.15475 (Simulation time: 0 hr 16 min 13 sec) 
Heartbeat CPU  0 instructions:  361000001 cycles:  291383238 heartbeat IPC: 1.12489 cumulative IPC: 1.15463 (Simulation time: 0 hr 16 min 16 sec) 
Heartbeat CPU  0 instructions:  362000000 cycles:  292261530 heartbeat IPC: 1.13857 cumulative IPC: 1.15457 (Simulation time: 0 hr 16 min 19 sec) 
Heartbeat CPU  0 instructions:  363000001 cycles:  293140209 heartbeat IPC: 1.13807 cumulative IPC: 1.15451 (Simulation time: 0 hr 16 min 21 sec) 
Heartbeat CPU  0 instructions:  364000000 cycles:  294022328 heartbeat IPC: 1.13363 cumulative IPC: 1.15443 (Simulation time: 0 hr 16 min 24 sec) 
Heartbeat CPU  0 instructions:  365000000 cycles:  294899890 heartbeat IPC: 1.13952 cumulative IPC: 1.15437 (Simulation time: 0 hr 16 min 27 sec) 
Heartbeat CPU  0 instructions:  366000001 cycles:  295773034 heartbeat IPC: 1.14529 cumulative IPC: 1.15433 (Simulation time: 0 hr 16 min 30 sec) 
Heartbeat CPU  0 instructions:  367000001 cycles:  296652673 heartbeat IPC: 1.13683 cumulative IPC: 1.15427 (Simulation time: 0 hr 16 min 33 sec) 
Heartbeat CPU  0 instructions:  368000000 cycles:  297532488 heartbeat IPC: 1.13660 cumulative IPC: 1.15420 (Simulation time: 0 hr 16 min 36 sec) 
Heartbeat CPU  0 instructions:  369000002 cycles:  298411310 heartbeat IPC: 1.13789 cumulative IPC: 1.15414 (Simulation time: 0 hr 16 min 39 sec) 
Heartbeat CPU  0 instructions:  370000001 cycles:  299288240 heartbeat IPC: 1.14034 cumulative IPC: 1.15409 (Simulation time: 0 hr 16 min 42 sec) 
Heartbeat CPU  0 instructions:  371000001 cycles:  300161240 heartbeat IPC: 1.14548 cumulative IPC: 1.15406 (Simulation time: 0 hr 16 min 45 sec) 
Heartbeat CPU  0 instructions:  372000000 cycles:  301044317 heartbeat IPC: 1.13240 cumulative IPC: 1.15397 (Simulation time: 0 hr 16 min 47 sec) 
Heartbeat CPU  0 instructions:  373000001 cycles:  301920246 heartbeat IPC: 1.14165 cumulative IPC: 1.15393 (Simulation time: 0 hr 16 min 50 sec) 
Heartbeat CPU  0 instructions:  374000003 cycles:  302800096 heartbeat IPC: 1.13656 cumulative IPC: 1.15386 (Simulation time: 0 hr 16 min 53 sec) 
Heartbeat CPU  0 instructions:  375000000 cycles:  303670978 heartbeat IPC: 1.14826 cumulative IPC: 1.15384 (Simulation time: 0 hr 16 min 56 sec) 
Heartbeat CPU  0 instructions:  376000000 cycles:  304554272 heartbeat IPC: 1.13213 cumulative IPC: 1.15376 (Simulation time: 0 hr 16 min 59 sec) 
Heartbeat CPU  0 instructions:  377000001 cycles:  305426111 heartbeat IPC: 1.14700 cumulative IPC: 1.15374 (Simulation time: 0 hr 17 min 2 sec) 
Heartbeat CPU  0 instructions:  378000001 cycles:  306302590 heartbeat IPC: 1.14093 cumulative IPC: 1.15369 (Simulation time: 0 hr 17 min 5 sec) 
Heartbeat CPU  0 instructions:  379000001 cycles:  307179664 heartbeat IPC: 1.14015 cumulative IPC: 1.15364 (Simulation time: 0 hr 17 min 8 sec) 
Heartbeat CPU  0 instructions:  380000000 cycles:  308053899 heartbeat IPC: 1.14386 cumulative IPC: 1.15361 (Simulation time: 0 hr 17 min 11 sec) 
Heartbeat CPU  0 instructions:  381000000 cycles:  308935996 heartbeat IPC: 1.13366 cumulative IPC: 1.15354 (Simulation time: 0 hr 17 min 13 sec) 
Heartbeat CPU  0 instructions:  382000000 cycles:  309814090 heartbeat IPC: 1.13883 cumulative IPC: 1.15348 (Simulation time: 0 hr 17 min 16 sec) 
Heartbeat CPU  0 instructions:  383000000 cycles:  310694270 heartbeat IPC: 1.13613 cumulative IPC: 1.15342 (Simulation time: 0 hr 17 min 19 sec) 
Heartbeat CPU  0 instructions:  384000000 cycles:  311572094 heartbeat IPC: 1.13918 cumulative IPC: 1.15337 (Simulation time: 0 hr 17 min 22 sec) 
Heartbeat CPU  0 instructions:  385000003 cycles:  312443703 heartbeat IPC: 1.14731 cumulative IPC: 1.15335 (Simulation time: 0 hr 17 min 25 sec) 
Heartbeat CPU  0 instructions:  386000000 cycles:  313322859 heartbeat IPC: 1.13745 cumulative IPC: 1.15329 (Simulation time: 0 hr 17 min 28 sec) 
Heartbeat CPU  0 instructions:  387000000 cycles:  314193081 heartbeat IPC: 1.14913 cumulative IPC: 1.15328 (Simulation time: 0 hr 17 min 31 sec) 
Heartbeat CPU  0 instructions:  388000000 cycles:  315071243 heartbeat IPC: 1.13874 cumulative IPC: 1.15323 (Simulation time: 0 hr 17 min 34 sec) 
Heartbeat CPU  0 instructions:  389000003 cycles:  315953849 heartbeat IPC: 1.13301 cumulative IPC: 1.15316 (Simulation time: 0 hr 17 min 36 sec) 
Heartbeat CPU  0 instructions:  390000001 cycles:  316837019 heartbeat IPC: 1.13228 cumulative IPC: 1.15308 (Simulation time: 0 hr 17 min 39 sec) 
Heartbeat CPU  0 instructions:  391000001 cycles:  317708819 heartbeat IPC: 1.14705 cumulative IPC: 1.15306 (Simulation time: 0 hr 17 min 42 sec) 
Heartbeat CPU  0 instructions:  392000000 cycles:  318588712 heartbeat IPC: 1.13650 cumulative IPC: 1.15300 (Simulation time: 0 hr 17 min 45 sec) 
Heartbeat CPU  0 instructions:  393000001 cycles:  319467707 heartbeat IPC: 1.13766 cumulative IPC: 1.15295 (Simulation time: 0 hr 17 min 48 sec) 
Heartbeat CPU  0 instructions:  394000000 cycles:  320352510 heartbeat IPC: 1.13019 cumulative IPC: 1.15287 (Simulation time: 0 hr 17 min 51 sec) 
Heartbeat CPU  0 instructions:  395000000 cycles:  321231769 heartbeat IPC: 1.13732 cumulative IPC: 1.15282 (Simulation time: 0 hr 17 min 54 sec) 
Heartbeat CPU  0 instructions:  396000000 cycles:  322112250 heartbeat IPC: 1.13574 cumulative IPC: 1.15276 (Simulation time: 0 hr 17 min 57 sec) 
Heartbeat CPU  0 instructions:  397000002 cycles:  322989580 heartbeat IPC: 1.13982 cumulative IPC: 1.15272 (Simulation time: 0 hr 18 min 0 sec) 
Heartbeat CPU  0 instructions:  398000000 cycles:  323867854 heartbeat IPC: 1.13859 cumulative IPC: 1.15267 (Simulation time: 0 hr 18 min 3 sec) 
Heartbeat CPU  0 instructions:  399000002 cycles:  324744922 heartbeat IPC: 1.14016 cumulative IPC: 1.15263 (Simulation time: 0 hr 18 min 6 sec) 
Heartbeat CPU  0 instructions:  400000000 cycles:  325619746 heartbeat IPC: 1.14308 cumulative IPC: 1.15259 (Simulation time: 0 hr 18 min 8 sec) 
Heartbeat CPU  0 instructions:  401000001 cycles:  326497811 heartbeat IPC: 1.13887 cumulative IPC: 1.15255 (Simulation time: 0 hr 18 min 11 sec) 
Heartbeat CPU  0 instructions:  402000002 cycles:  327371151 heartbeat IPC: 1.14503 cumulative IPC: 1.15252 (Simulation time: 0 hr 18 min 14 sec) 
Heartbeat CPU  0 instructions:  403000003 cycles:  328251517 heartbeat IPC: 1.13589 cumulative IPC: 1.15247 (Simulation time: 0 hr 18 min 17 sec) 
Heartbeat CPU  0 instructions:  404000000 cycles:  329148867 heartbeat IPC: 1.11439 cumulative IPC: 1.15234 (Simulation time: 0 hr 18 min 20 sec) 
Heartbeat CPU  0 instructions:  405000003 cycles:  330058555 heartbeat IPC: 1.09928 cumulative IPC: 1.15216 (Simulation time: 0 hr 18 min 23 sec) 
Heartbeat CPU  0 instructions:  406000003 cycles:  330971180 heartbeat IPC: 1.09574 cumulative IPC: 1.15196 (Simulation time: 0 hr 18 min 26 sec) 
Heartbeat CPU  0 instructions:  407000002 cycles:  331899791 heartbeat IPC: 1.07688 cumulative IPC: 1.15170 (Simulation time: 0 hr 18 min 29 sec) 
Heartbeat CPU  0 instructions:  408000000 cycles:  332816652 heartbeat IPC: 1.09068 cumulative IPC: 1.15149 (Simulation time: 0 hr 18 min 32 sec) 
Heartbeat CPU  0 instructions:  409000001 cycles:  333724876 heartbeat IPC: 1.10105 cumulative IPC: 1.15132 (Simulation time: 0 hr 18 min 35 sec) 
Heartbeat CPU  0 instructions:  410000003 cycles:  334640842 heartbeat IPC: 1.09175 cumulative IPC: 1.15112 (Simulation time: 0 hr 18 min 38 sec) 
Heartbeat CPU  0 instructions:  411000002 cycles:  335566498 heartbeat IPC: 1.08031 cumulative IPC: 1.15087 (Simulation time: 0 hr 18 min 41 sec) 
Heartbeat CPU  0 instructions:  412000000 cycles:  336470125 heartbeat IPC: 1.10665 cumulative IPC: 1.15073 (Simulation time: 0 hr 18 min 43 sec) 
Heartbeat CPU  0 instructions:  413000000 cycles:  337387357 heartbeat IPC: 1.09024 cumulative IPC: 1.15052 (Simulation time: 0 hr 18 min 46 sec) 
Heartbeat CPU  0 instructions:  414000000 cycles:  338304071 heartbeat IPC: 1.09085 cumulative IPC: 1.15032 (Simulation time: 0 hr 18 min 49 sec) 
Heartbeat CPU  0 instructions:  415000002 cycles:  339179032 heartbeat IPC: 1.14291 cumulative IPC: 1.15030 (Simulation time: 0 hr 18 min 52 sec) 
Heartbeat CPU  0 instructions:  416000000 cycles:  340062207 heartbeat IPC: 1.13228 cumulative IPC: 1.15024 (Simulation time: 0 hr 18 min 55 sec) 
Heartbeat CPU  0 instructions:  417000002 cycles:  340939530 heartbeat IPC: 1.13983 cumulative IPC: 1.15021 (Simulation time: 0 hr 18 min 58 sec) 
Heartbeat CPU  0 instructions:  418000000 cycles:  341818493 heartbeat IPC: 1.13770 cumulative IPC: 1.15017 (Simulation time: 0 hr 19 min 1 sec) 
Heartbeat CPU  0 instructions:  419000001 cycles:  342702139 heartbeat IPC: 1.13168 cumulative IPC: 1.15011 (Simulation time: 0 hr 19 min 4 sec) 
Heartbeat CPU  0 instructions:  420000000 cycles:  343576060 heartbeat IPC: 1.14427 cumulative IPC: 1.15009 (Simulation time: 0 hr 19 min 7 sec) 
Heartbeat CPU  0 instructions:  421000001 cycles:  344456708 heartbeat IPC: 1.13553 cumulative IPC: 1.15005 (Simulation time: 0 hr 19 min 9 sec) 
Heartbeat CPU  0 instructions:  422000003 cycles:  345334369 heartbeat IPC: 1.13939 cumulative IPC: 1.15001 (Simulation time: 0 hr 19 min 12 sec) 
Heartbeat CPU  0 instructions:  423000000 cycles:  346225506 heartbeat IPC: 1.12216 cumulative IPC: 1.14992 (Simulation time: 0 hr 19 min 15 sec) 
Heartbeat CPU  0 instructions:  424000000 cycles:  347098177 heartbeat IPC: 1.14591 cumulative IPC: 1.14991 (Simulation time: 0 hr 19 min 18 sec) 
Heartbeat CPU  0 instructions:  425000000 cycles:  347978816 heartbeat IPC: 1.13554 cumulative IPC: 1.14987 (Simulation time: 0 hr 19 min 21 sec) 
Heartbeat CPU  0 instructions:  426000003 cycles:  348855513 heartbeat IPC: 1.14065 cumulative IPC: 1.14984 (Simulation time: 0 hr 19 min 24 sec) 
Heartbeat CPU  0 instructions:  427000001 cycles:  349731739 heartbeat IPC: 1.14126 cumulative IPC: 1.14981 (Simulation time: 0 hr 19 min 27 sec) 
Heartbeat CPU  0 instructions:  428000000 cycles:  350614182 heartbeat IPC: 1.13322 cumulative IPC: 1.14976 (Simulation time: 0 hr 19 min 30 sec) 
Heartbeat CPU  0 instructions:  429000001 cycles:  351493839 heartbeat IPC: 1.13681 cumulative IPC: 1.14972 (Simulation time: 0 hr 19 min 33 sec) 
Heartbeat CPU  0 instructions:  430000001 cycles:  352372940 heartbeat IPC: 1.13753 cumulative IPC: 1.14968 (Simulation time: 0 hr 19 min 36 sec) 
Heartbeat CPU  0 instructions:  431000002 cycles:  353248541 heartbeat IPC: 1.14207 cumulative IPC: 1.14966 (Simulation time: 0 hr 19 min 39 sec) 
Heartbeat CPU  0 instructions:  432000000 cycles:  354147855 heartbeat IPC: 1.11196 cumulative IPC: 1.14954 (Simulation time: 0 hr 19 min 41 sec) 
Heartbeat CPU  0 instructions:  433000002 cycles:  355066028 heartbeat IPC: 1.08912 cumulative IPC: 1.14935 (Simulation time: 0 hr 19 min 44 sec) 
Heartbeat CPU  0 instructions:  434000001 cycles:  355976425 heartbeat IPC: 1.09842 cumulative IPC: 1.14919 (Simulation time: 0 hr 19 min 47 sec) 
Heartbeat CPU  0 instructions:  435000000 cycles:  356856541 heartbeat IPC: 1.13621 cumulative IPC: 1.14915 (Simulation time: 0 hr 19 min 50 sec) 
Heartbeat CPU  0 instructions:  436000000 cycles:  357734997 heartbeat IPC: 1.13836 cumulative IPC: 1.14912 (Simulation time: 0 hr 19 min 53 sec) 
Heartbeat CPU  0 instructions:  437000001 cycles:  358613931 heartbeat IPC: 1.13774 cumulative IPC: 1.14909 (Simulation time: 0 hr 19 min 56 sec) 
Heartbeat CPU  0 instructions:  438000000 cycles:  359490884 heartbeat IPC: 1.14031 cumulative IPC: 1.14906 (Simulation time: 0 hr 19 min 59 sec) 
Heartbeat CPU  0 instructions:  439000001 cycles:  360365257 heartbeat IPC: 1.14368 cumulative IPC: 1.14904 (Simulation time: 0 hr 20 min 2 sec) 
Heartbeat CPU  0 instructions:  440000000 cycles:  361242876 heartbeat IPC: 1.13945 cumulative IPC: 1.14901 (Simulation time: 0 hr 20 min 5 sec) 
Heartbeat CPU  0 instructions:  441000000 cycles:  362120705 heartbeat IPC: 1.13917 cumulative IPC: 1.14899 (Simulation time: 0 hr 20 min 8 sec) 
Heartbeat CPU  0 instructions:  442000000 cycles:  362997034 heartbeat IPC: 1.14112 cumulative IPC: 1.14896 (Simulation time: 0 hr 20 min 10 sec) 
Heartbeat CPU  0 instructions:  443000001 cycles:  363873210 heartbeat IPC: 1.14132 cumulative IPC: 1.14894 (Simulation time: 0 hr 20 min 13 sec) 
Heartbeat CPU  0 instructions:  444000000 cycles:  364751341 heartbeat IPC: 1.13878 cumulative IPC: 1.14891 (Simulation time: 0 hr 20 min 16 sec) 
Heartbeat CPU  0 instructions:  445000003 cycles:  365626604 heartbeat IPC: 1.14252 cumulative IPC: 1.14889 (Simulation time: 0 hr 20 min 19 sec) 
Heartbeat CPU  0 instructions:  446000000 cycles:  366508313 heartbeat IPC: 1.13416 cumulative IPC: 1.14885 (Simulation time: 0 hr 20 min 22 sec) 
Heartbeat CPU  0 instructions:  447000002 cycles:  367381585 heartbeat IPC: 1.14512 cumulative IPC: 1.14884 (Simulation time: 0 hr 20 min 25 sec) 
Heartbeat CPU  0 instructions:  448000000 cycles:  368264568 heartbeat IPC: 1.13252 cumulative IPC: 1.14879 (Simulation time: 0 hr 20 min 28 sec) 
Heartbeat CPU  0 instructions:  449000000 cycles:  369145047 heartbeat IPC: 1.13575 cumulative IPC: 1.14875 (Simulation time: 0 hr 20 min 31 sec) 
Heartbeat CPU  0 instructions:  450000000 cycles:  370023210 heartbeat IPC: 1.13874 cumulative IPC: 1.14872 (Simulation time: 0 hr 20 min 34 sec) 
Heartbeat CPU  0 instructions:  451000001 cycles:  370899183 heartbeat IPC: 1.14159 cumulative IPC: 1.14870 (Simulation time: 0 hr 20 min 37 sec) 
Heartbeat CPU  0 instructions:  452000000 cycles:  371780198 heartbeat IPC: 1.13505 cumulative IPC: 1.14866 (Simulation time: 0 hr 20 min 39 sec) 
Heartbeat CPU  0 instructions:  453000000 cycles:  372661295 heartbeat IPC: 1.13495 cumulative IPC: 1.14862 (Simulation time: 0 hr 20 min 42 sec) 
Heartbeat CPU  0 instructions:  454000003 cycles:  373533749 heartbeat IPC: 1.14620 cumulative IPC: 1.14862 (Simulation time: 0 hr 20 min 45 sec) 
Heartbeat CPU  0 instructions:  455000000 cycles:  374413356 heartbeat IPC: 1.13687 cumulative IPC: 1.14858 (Simulation time: 0 hr 20 min 48 sec) 
Heartbeat CPU  0 instructions:  456000000 cycles:  375296349 heartbeat IPC: 1.13251 cumulative IPC: 1.14854 (Simulation time: 0 hr 20 min 51 sec) 
Heartbeat CPU  0 instructions:  457000001 cycles:  376178105 heartbeat IPC: 1.13410 cumulative IPC: 1.14850 (Simulation time: 0 hr 20 min 54 sec) 
Heartbeat CPU  0 instructions:  458000000 cycles:  377051739 heartbeat IPC: 1.14464 cumulative IPC: 1.14849 (Simulation time: 0 hr 20 min 57 sec) 
Heartbeat CPU  0 instructions:  459000000 cycles:  377928558 heartbeat IPC: 1.14049 cumulative IPC: 1.14846 (Simulation time: 0 hr 21 min 0 sec) 
Heartbeat CPU  0 instructions:  460000000 cycles:  378812960 heartbeat IPC: 1.13071 cumulative IPC: 1.14841 (Simulation time: 0 hr 21 min 3 sec) 
Heartbeat CPU  0 instructions:  461000001 cycles:  379688582 heartbeat IPC: 1.14205 cumulative IPC: 1.14840 (Simulation time: 0 hr 21 min 5 sec) 
Heartbeat CPU  0 instructions:  462000000 cycles:  380569952 heartbeat IPC: 1.13460 cumulative IPC: 1.14836 (Simulation time: 0 hr 21 min 8 sec) 
Heartbeat CPU  0 instructions:  463000003 cycles:  381443737 heartbeat IPC: 1.14445 cumulative IPC: 1.14835 (Simulation time: 0 hr 21 min 11 sec) 
Heartbeat CPU  0 instructions:  464000000 cycles:  382321935 heartbeat IPC: 1.13869 cumulative IPC: 1.14832 (Simulation time: 0 hr 21 min 14 sec) 
Heartbeat CPU  0 instructions:  465000000 cycles:  383193334 heartbeat IPC: 1.14758 cumulative IPC: 1.14832 (Simulation time: 0 hr 21 min 17 sec) 
Heartbeat CPU  0 instructions:  466000003 cycles:  384069332 heartbeat IPC: 1.14156 cumulative IPC: 1.14830 (Simulation time: 0 hr 21 min 20 sec) 
Heartbeat CPU  0 instructions:  467000003 cycles:  384942279 heartbeat IPC: 1.14554 cumulative IPC: 1.14829 (Simulation time: 0 hr 21 min 23 sec) 
Heartbeat CPU  0 instructions:  468000000 cycles:  385821771 heartbeat IPC: 1.13702 cumulative IPC: 1.14826 (Simulation time: 0 hr 21 min 26 sec) 
Heartbeat CPU  0 instructions:  469000000 cycles:  386697492 heartbeat IPC: 1.14192 cumulative IPC: 1.14824 (Simulation time: 0 hr 21 min 28 sec) 
Heartbeat CPU  0 instructions:  470000002 cycles:  387572223 heartbeat IPC: 1.14321 cumulative IPC: 1.14823 (Simulation time: 0 hr 21 min 31 sec) 
Heartbeat CPU  0 instructions:  471000000 cycles:  388443694 heartbeat IPC: 1.14748 cumulative IPC: 1.14823 (Simulation time: 0 hr 21 min 34 sec) 
Heartbeat CPU  0 instructions:  472000000 cycles:  389315838 heartbeat IPC: 1.14660 cumulative IPC: 1.14822 (Simulation time: 0 hr 21 min 37 sec) 
Heartbeat CPU  0 instructions:  473000001 cycles:  390196198 heartbeat IPC: 1.13590 cumulative IPC: 1.14819 (Simulation time: 0 hr 21 min 40 sec) 
Heartbeat CPU  0 instructions:  474000000 cycles:  391073725 heartbeat IPC: 1.13956 cumulative IPC: 1.14817 (Simulation time: 0 hr 21 min 43 sec) 
Heartbeat CPU  0 instructions:  475000001 cycles:  391952291 heartbeat IPC: 1.13822 cumulative IPC: 1.14814 (Simulation time: 0 hr 21 min 46 sec) 
Heartbeat CPU  0 instructions:  476000000 cycles:  392826418 heartbeat IPC: 1.14400 cumulative IPC: 1.14813 (Simulation time: 0 hr 21 min 49 sec) 
Heartbeat CPU  0 instructions:  477000000 cycles:  393704145 heartbeat IPC: 1.13931 cumulative IPC: 1.14811 (Simulation time: 0 hr 21 min 51 sec) 
Heartbeat CPU  0 instructions:  478000000 cycles:  394582120 heartbeat IPC: 1.13898 cumulative IPC: 1.14808 (Simulation time: 0 hr 21 min 54 sec) 
Heartbeat CPU  0 instructions:  479000002 cycles:  395454132 heartbeat IPC: 1.14678 cumulative IPC: 1.14808 (Simulation time: 0 hr 21 min 57 sec) 
Heartbeat CPU  0 instructions:  480000000 cycles:  396332151 heartbeat IPC: 1.13893 cumulative IPC: 1.14805 (Simulation time: 0 hr 22 min 0 sec) 
Heartbeat CPU  0 instructions:  481000000 cycles:  397210738 heartbeat IPC: 1.13819 cumulative IPC: 1.14803 (Simulation time: 0 hr 22 min 3 sec) 
Heartbeat CPU  0 instructions:  482000002 cycles:  398090103 heartbeat IPC: 1.13719 cumulative IPC: 1.14800 (Simulation time: 0 hr 22 min 6 sec) 
Heartbeat CPU  0 instructions:  483000003 cycles:  398968301 heartbeat IPC: 1.13870 cumulative IPC: 1.14797 (Simulation time: 0 hr 22 min 9 sec) 
Heartbeat CPU  0 instructions:  484000000 cycles:  399839327 heartbeat IPC: 1.14807 cumulative IPC: 1.14797 (Simulation time: 0 hr 22 min 11 sec) 
Heartbeat CPU  0 instructions:  485000000 cycles:  400724381 heartbeat IPC: 1.12987 cumulative IPC: 1.14793 (Simulation time: 0 hr 22 min 14 sec) 
Heartbeat CPU  0 instructions:  486000002 cycles:  401603579 heartbeat IPC: 1.13740 cumulative IPC: 1.14790 (Simulation time: 0 hr 22 min 17 sec) 
Heartbeat CPU  0 instructions:  487000002 cycles:  402476913 heartbeat IPC: 1.14504 cumulative IPC: 1.14789 (Simulation time: 0 hr 22 min 20 sec) 
Heartbeat CPU  0 instructions:  488000000 cycles:  403351600 heartbeat IPC: 1.14326 cumulative IPC: 1.14788 (Simulation time: 0 hr 22 min 23 sec) 
Heartbeat CPU  0 instructions:  489000001 cycles:  404225560 heartbeat IPC: 1.14422 cumulative IPC: 1.14787 (Simulation time: 0 hr 22 min 26 sec) 
Heartbeat CPU  0 instructions:  490000002 cycles:  405101376 heartbeat IPC: 1.14179 cumulative IPC: 1.14786 (Simulation time: 0 hr 22 min 29 sec) 
Heartbeat CPU  0 instructions:  491000002 cycles:  405979931 heartbeat IPC: 1.13823 cumulative IPC: 1.14783 (Simulation time: 0 hr 22 min 32 sec) 
Heartbeat CPU  0 instructions:  492000000 cycles:  406856372 heartbeat IPC: 1.14098 cumulative IPC: 1.14781 (Simulation time: 0 hr 22 min 34 sec) 
Heartbeat CPU  0 instructions:  493000003 cycles:  407734473 heartbeat IPC: 1.13882 cumulative IPC: 1.14779 (Simulation time: 0 hr 22 min 37 sec) 
Heartbeat CPU  0 instructions:  494000002 cycles:  408618290 heartbeat IPC: 1.13145 cumulative IPC: 1.14775 (Simulation time: 0 hr 22 min 40 sec) 
Heartbeat CPU  0 instructions:  495000002 cycles:  409493714 heartbeat IPC: 1.14230 cumulative IPC: 1.14773 (Simulation time: 0 hr 22 min 43 sec) 
Heartbeat CPU  0 instructions:  496000000 cycles:  410369729 heartbeat IPC: 1.14153 cumulative IPC: 1.14772 (Simulation time: 0 hr 22 min 46 sec) 
Heartbeat CPU  0 instructions:  497000003 cycles:  411250024 heartbeat IPC: 1.13599 cumulative IPC: 1.14769 (Simulation time: 0 hr 22 min 49 sec) 
Heartbeat CPU  0 instructions:  498000000 cycles:  412126434 heartbeat IPC: 1.14102 cumulative IPC: 1.14767 (Simulation time: 0 hr 22 min 52 sec) 
Heartbeat CPU  0 instructions:  499000001 cycles:  413004733 heartbeat IPC: 1.13857 cumulative IPC: 1.14765 (Simulation time: 0 hr 22 min 54 sec) 
Heartbeat CPU  0 instructions:  500000000 cycles:  413875979 heartbeat IPC: 1.14778 cumulative IPC: 1.14765 (Simulation time: 0 hr 22 min 57 sec) 
Heartbeat CPU  0 instructions:  501000000 cycles:  414750162 heartbeat IPC: 1.14393 cumulative IPC: 1.14764 (Simulation time: 0 hr 23 min 0 sec) 
Heartbeat CPU  0 instructions:  502000000 cycles:  415636125 heartbeat IPC: 1.12872 cumulative IPC: 1.14759 (Simulation time: 0 hr 23 min 3 sec) 
Heartbeat CPU  0 instructions:  503000000 cycles:  416554840 heartbeat IPC: 1.08848 cumulative IPC: 1.14744 (Simulation time: 0 hr 23 min 6 sec) 
Heartbeat CPU  0 instructions:  504000000 cycles:  417435628 heartbeat IPC: 1.13535 cumulative IPC: 1.14741 (Simulation time: 0 hr 23 min 9 sec) 
Heartbeat CPU  0 instructions:  505000002 cycles:  418314567 heartbeat IPC: 1.13774 cumulative IPC: 1.14738 (Simulation time: 0 hr 23 min 12 sec) 
Heartbeat CPU  0 instructions:  506000001 cycles:  419194131 heartbeat IPC: 1.13693 cumulative IPC: 1.14736 (Simulation time: 0 hr 23 min 15 sec) 
Heartbeat CPU  0 instructions:  507000001 cycles:  420069929 heartbeat IPC: 1.14182 cumulative IPC: 1.14734 (Simulation time: 0 hr 23 min 17 sec) 
Heartbeat CPU  0 instructions:  508000000 cycles:  420955251 heartbeat IPC: 1.12953 cumulative IPC: 1.14730 (Simulation time: 0 hr 23 min 20 sec) 
Heartbeat CPU  0 instructions:  509000000 cycles:  421826239 heartbeat IPC: 1.14812 cumulative IPC: 1.14730 (Simulation time: 0 hr 23 min 23 sec) 
Heartbeat CPU  0 instructions:  510000001 cycles:  422706643 heartbeat IPC: 1.13584 cumulative IPC: 1.14727 (Simulation time: 0 hr 23 min 26 sec) 
Heartbeat CPU  0 instructions:  511000001 cycles:  423586234 heartbeat IPC: 1.13689 cumulative IPC: 1.14725 (Simulation time: 0 hr 23 min 29 sec) 
Heartbeat CPU  0 instructions:  512000000 cycles:  424463426 heartbeat IPC: 1.14000 cumulative IPC: 1.14723 (Simulation time: 0 hr 23 min 32 sec) 
Heartbeat CPU  0 instructions:  513000002 cycles:  425339556 heartbeat IPC: 1.14139 cumulative IPC: 1.14721 (Simulation time: 0 hr 23 min 35 sec) 
Heartbeat CPU  0 instructions:  514000001 cycles:  426217180 heartbeat IPC: 1.13944 cumulative IPC: 1.14720 (Simulation time: 0 hr 23 min 37 sec) 
Heartbeat CPU  0 instructions:  515000000 cycles:  427097570 heartbeat IPC: 1.13586 cumulative IPC: 1.14717 (Simulation time: 0 hr 23 min 40 sec) 
Heartbeat CPU  0 instructions:  516000000 cycles:  427970902 heartbeat IPC: 1.14504 cumulative IPC: 1.14716 (Simulation time: 0 hr 23 min 43 sec) 
Heartbeat CPU  0 instructions:  517000000 cycles:  428846322 heartbeat IPC: 1.14231 cumulative IPC: 1.14715 (Simulation time: 0 hr 23 min 46 sec) 
Heartbeat CPU  0 instructions:  518000001 cycles:  429728094 heartbeat IPC: 1.13408 cumulative IPC: 1.14712 (Simulation time: 0 hr 23 min 49 sec) 
Heartbeat CPU  0 instructions:  519000002 cycles:  430607812 heartbeat IPC: 1.13673 cumulative IPC: 1.14709 (Simulation time: 0 hr 23 min 52 sec) 
Heartbeat CPU  0 instructions:  520000000 cycles:  431489718 heartbeat IPC: 1.13391 cumulative IPC: 1.14706 (Simulation time: 0 hr 23 min 55 sec) 
Heartbeat CPU  0 instructions:  521000001 cycles:  432367025 heartbeat IPC: 1.13985 cumulative IPC: 1.14705 (Simulation time: 0 hr 23 min 58 sec) 
Heartbeat CPU  0 instructions:  522000003 cycles:  433244495 heartbeat IPC: 1.13964 cumulative IPC: 1.14703 (Simulation time: 0 hr 24 min 0 sec) 
Heartbeat CPU  0 instructions:  523000001 cycles:  434122465 heartbeat IPC: 1.13899 cumulative IPC: 1.14701 (Simulation time: 0 hr 24 min 3 sec) 
Heartbeat CPU  0 instructions:  524000000 cycles:  435000762 heartbeat IPC: 1.13857 cumulative IPC: 1.14699 (Simulation time: 0 hr 24 min 6 sec) 
Heartbeat CPU  0 instructions:  525000002 cycles:  435880689 heartbeat IPC: 1.13646 cumulative IPC: 1.14696 (Simulation time: 0 hr 24 min 9 sec) 
Heartbeat CPU  0 instructions:  526000001 cycles:  436756126 heartbeat IPC: 1.14229 cumulative IPC: 1.14695 (Simulation time: 0 hr 24 min 12 sec) 
Heartbeat CPU  0 instructions:  527000000 cycles:  437634101 heartbeat IPC: 1.13898 cumulative IPC: 1.14693 (Simulation time: 0 hr 24 min 15 sec) 
[...]
Core_0_L1I_RFOs 0
Core_0_L1I_RFO_hit 0
Core_0_L1I_RFO_miss 0
Core_0_L1I_prefetches 0
Core_0_L1I_prefetch_hit 0
Core_0_L1I_prefetch_miss 0
Core_0_L1I_writebacks 0
Core_0_L1I_writeback_hit 0
Core_0_L1I_writeback_miss 0
Core_0_L1I_prefetch_requested 0
Core_0_L1I_prefetch_dropped 0
Core_0_L1I_prefetch_issued 0
Core_0_L1I_prefetch_filled 0
Core_0_L1I_prefetch_useful 0
Core_0_L1I_prefetch_useless 0
Core_0_L1I_prefetch_late 0
Core_0_L1I_average_miss_latency 254.51852

Core_0_L1I_rq_access 500000098
Core_0_L1I_rq_forward 0
Core_0_L1I_rq_merged 386072920
Core_0_L1I_rq_to_cache 113927178
Core_0_L1I_rq_full 0

Core_0_L1I_wq_access 0
Core_0_L1I_wq_forward 0
Core_0_L1I_wq_merged 0
Core_0_L1I_wq_to_cache 0
Core_0_L1I_wq_full 0

Core_0_L1I_pq_access 0
Core_0_L1I_pq_forward 0
Core_0_L1I_pq_merged 0
Core_0_L1I_pq_to_cache 0
Core_0_L1I_pq_full 0

Core_0_L1I_acc_epochs 476368
Core_0_L1I_acc_level_0 476368
Core_0_L1I_acc_level_1 0
Core_0_L1I_acc_level_2 0
Core_0_L1I_acc_level_3 0
Core_0_L1I_acc_level_4 0
Core_0_L1I_acc_level_5 0
Core_0_L1I_acc_level_6 0
Core_0_L1I_acc_level_7 0
Core_0_L1I_acc_level_8 0
Core_0_L1I_acc_level_9 0

Core_0_L2C_total_access 19207525
Core_0_L2C_total_hit 9931410
Core_0_L2C_total_miss 9276115
Core_0_L2C_loads 9919342
Core_0_L2C_load_hit 9432745
Core_0_L2C_load_miss 486597
Core_0_L2C_RFOs 258631
Core_0_L2C_RFO_hit 38403
Core_0_L2C_RFO_miss 220228
Core_0_L2C_prefetches 8567685
Core_0_L2C_prefetch_hit 192
Core_0_L2C_prefetch_miss 8567493
Core_0_L2C_writebacks 461867
Core_0_L2C_writeback_hit 460070
Core_0_L2C_writeback_miss 1797
Core_0_L2C_prefetch_requested 13423310
Core_0_L2C_prefetch_dropped 0
Core_0_L2C_prefetch_issued 13423310
Core_0_L2C_prefetch_filled 10316353
Core_0_L2C_prefetch_useful 10308236
Core_0_L2C_prefetch_useless 8013
Core_0_L2C_prefetch_late 68866
Core_0_L2C_average_miss_latency 270.36095

Core_0_L2C_rq_access 10183424
Core_0_L2C_rq_forward 0
Core_0_L2C_rq_merged 0
Core_0_L2C_rq_to_cache 10177973
Core_0_L2C_rq_full 0

Core_0_L2C_wq_access 461867
Core_0_L2C_wq_forward 5451
Core_0_L2C_wq_merged 0
Core_0_L2C_wq_to_cache 461867
Core_0_L2C_wq_full 0

Core_0_L2C_pq_access 13423310
Core_0_L2C_pq_forward 0
Core_0_L2C_pq_merged 46665
Core_0_L2C_pq_to_cache 13376645
Core_0_L2C_pq_full 0

Core_0_L2C_acc_epochs 476368
Core_0_L2C_acc_level_0 77
Core_0_L2C_acc_level_1 119
Core_0_L2C_acc_level_2 245
Core_0_L2C_acc_level_3 841
Core_0_L2C_acc_level_4 3200
Core_0_L2C_acc_level_5 6195
Core_0_L2C_acc_level_6 9485
Core_0_L2C_acc_level_7 17338
Core_0_L2C_acc_level_8 35769
Core_0_L2C_acc_level_9 403099

Core_0_LLC_total_access 11315653
Core_0_LLC_total_hit 1783042
Core_0_LLC_total_miss 9532611
Core_0_LLC_loads 417843
Core_0_LLC_load_hit 14206
Core_0_LLC_load_miss 403637
Core_0_LLC_RFOs 220228
Core_0_LLC_RFO_hit 0
Core_0_LLC_RFO_miss 220228
Core_0_LLC_prefetches 10284024
Core_0_LLC_prefetch_hit 1759591
Core_0_LLC_prefetch_miss 8524433
Core_0_LLC_writebacks 393558
Core_0_LLC_writeback_hit 9245
Core_0_LLC_writeback_miss 384313
Core_0_LLC_prefetch_requested 0
Core_0_LLC_prefetch_dropped 0
Core_0_LLC_prefetch_issued 0
Core_0_LLC_prefetch_filled 10262459
Core_0_LLC_prefetch_useful 10180
Core_0_LLC_prefetch_useless 10222218
Core_0_LLC_prefetch_late 0
Core_0_LLC_average_miss_latency 294.33349

Core_0_LLC_rq_access 638071
Core_0_LLC_rq_forward 0
Core_0_LLC_rq_merged 0
Core_0_LLC_rq_to_cache 638071
Core_0_LLC_rq_full 0

Core_0_LLC_wq_access 393558
Core_0_LLC_wq_forward 0
Core_0_LLC_wq_merged 0
Core_0_LLC_wq_to_cache 393558
Core_0_LLC_wq_full 0

Core_0_LLC_pq_access 13350264
Core_0_LLC_pq_forward 0
Core_0_LLC_pq_merged 67917
Core_0_LLC_pq_to_cache 13282347
Core_0_LLC_pq_full 0

Core_0_LLC_acc_epochs 490048
Core_0_LLC_acc_level_0 486084
Core_0_LLC_acc_level_1 1595
Core_0_LLC_acc_level_2 1141
Core_0_LLC_acc_level_3 468
Core_0_LLC_acc_level_4 41
Core_0_LLC_acc_level_5 504
Core_0_LLC_acc_level_6 160
Core_0_LLC_acc_level_7 41
Core_0_LLC_acc_level_8 9
Core_0_LLC_acc_level_9 5

Core_0_major_page_fault 0
Core_0_minor_page_fault 104618

[MLOP] History of tracked zone:
IIIIIIIIIIIIIIIIIIIIIIIIIIIIIIIIIIIIIIIIIIIIIIIIIIIIIIIIIIIIIIII
AIIIIIIIIIIIIIIIIIIIIIIIIIIIIIIIIIIIIIIIIIIIIIIIIIIIIIIIIIIIIIII
AA2222222222222222IIIIIIIIIIIIIIIIIIIIIIIIIIIIIIIIIIIIIIIIIIIIII
AAA2222222222222222IIIIIIIIIIIIIIIIIIIIIIIIIIIIIIIIIIIIIIIIIIIII
AAAA2222222222222222IIIIIIIIIIIIIIIIIIIIIIIIIIIIIIIIIIIIIIIIIIII
AAAAA2222222222222222IIIIIIIIIIIIIIIIIIIIIIIIIIIIIIIIIIIIIIIIIII
AAAAAA2222222222222222IIIIIIIIIIIIIIIIIIIIIIIIIIIIIIIIIIIIIIIIII
AAAAAAA2222222222222222IIIIIIIIIIIIIIIIIIIIIIIIIIIIIIIIIIIIIIIII
AAAAAAAA2222222222222222IIIIIIIIIIIIIIIIIIIIIIIIIIIIIIIIIIIIIIII
AAAAAAAAA2222222222222222IIIIIIIIIIIIIIIIIIIIIIIIIIIIIIIIIIIIIII
AAAAAAAAAA2222222222222222IIIIIIIIIIIIIIIIIIIIIIIIIIIIIIIIIIIIII
AAAAAAAAAAA2222222222222222IIIIIIIIIIIIIIIIIIIIIIIIIIIIIIIIIIIII
AAAAAAAAAAAA2222222222222222IIIIIIIIIIIIIIIIIIIIIIIIIIIIIIIIIIII
AAAAAAAAAAAAA2222222222222222IIIIIIIIIIIIIIIIIIIIIIIIIIIIIIIIIII
AAAAAAAAAAAAAA2222222222222222IIIIIIIIIIIIIIIIIIIIIIIIIIIIIIIIII
AAAAAAAAAAAAAAA2222222222222222IIIIIIIIIIIIIIIIIIIIIIIIIIIIIIIII
AAAAAAAAAAAAAAAA2222222222222222IIIIIIIIIIIIIIIIIIIIIIIIIIIIIIII
AAAAAAAAAAAAAAAAA2222222222222222IIIIIIIIIIIIIIIIIIIIIIIIIIIIIII
AAAAAAAAAAAAAAAAAA2222222222222222IIIIIIIIIIIIIIIIIIIIIIIIIIIIII
AAAAAAAAAAAAAAAAAAA2222222222222222IIIIIIIIIIIIIIIIIIIIIIIIIIIII
AAAAAAAAAAAAAAAAAAAA2222222222222222IIIIIIIIIIIIIIIIIIIIIIIIIIII
AAAAAAAAAAAAAAAAAAAAA2222222222222222IIIIIIIIIIIIIIIIIIIIIIIIIII
AAAAAAAAAAAAAAAAAAAAAA2222222222222222IIIIIIIIIIIIIIIIIIIIIIIIII
AAAAAAAAAAAAAAAAAAAAAAA2222222222222222IIIIIIIIIIIIIIIIIIIIIIIII
AAAAAAAAAAAAAAAAAAAAAAAA2222222222222222IIIIIIIIIIIIIIIIIIIIIIII
AAAAAAAAAAAAAAAAAAAAAAAAA2222222222222222IIIIIIIIIIIIIIIIIIIIIII
AAAAAAAAAAAAAAAAAAAAAAAAAA2222222222222222IIIIIIIIIIIIIIIIIIIIII
AAAAAAAAAAAAAAAAAAAAAAAAAAA2222222222222222IIIIIIIIIIIIIIIIIIIII
AAAAAAAAAAAAAAAAAAAAAAAAAAAA2222222222222222IIIIIIIIIIIIIIIIIIII
AAAAAAAAAAAAAAAAAAAAAAAAAAAAA2222222222222222IIIIIIIIIIIIIIIIIII
AAAAAAAAAAAAAAAAAAAAAAAAAAAAAA2222222222222222IIIIIIIIIIIIIIIIII
AAAAAAAAAAAAAAAAAAAAAAAAAAAAAAA2222222222222222IIIIIIIIIIIIIIIII
AAAAAAAAAAAAAAAAAAAAAAAAAAAAAAAA2222222222222222IIIIIIIIIIIIIIII
AAAAAAAAAAAAAAAAAAAAAAAAAAAAAAAAA2222222222222222IIIIIIIIIIIIIII
AAAAAAAAAAAAAAAAAAAAAAAAAAAAAAAAAA2222222222222222IIIIIIIIIIIIII
AAAAAAAAAAAAAAAAAAAAAAAAAAAAAAAAAAA2222222222222222IIIIIIIIIIIII
AAAAAAAAAAAAAAAAAAAAAAAAAAAAAAAAAAAA2222222222222222IIIIIIIIIIII
AAAAAAAAAAAAAAAAAAAAAAAAAAAAAAAAAAAAA2222222222222222IIIIIIIIIII
AAAAAAAAAAAAAAAAAAAAAAAAAAAAAAAAAAAAAA22222222222222222IIIIIIIII
AAAAAAAAAAAAAAAAAAAAAAAAAAAAAAAAAAAAAAA22222222222222222IIIIIIII
AAAAAAAAAAAAAAAAAAAAAAAAAAAAAAAAAAAAAAAA22222222222222222IIIIIII
AAAAAAAAAAAAAAAAAAAAAAAAAAAAAAAAAAAAAAAAA22222222222222222IIIIII
AAAAAAAAAAAAAAAAAAAAAAAAAAAAAAAAAAAAAAAAAA22222222222222222IIIII
AAAAAAAAAAAAAAAAAAAAAAAAAAAAAAAAAAAAAAAAAAA22222222222222222IIII
AAAAAAAAAAAAAAAAAAAAAAAAAAAAAAAAAAAAAAAAAAAA22222222222222222III
AAAAAAAAAAAAAAAAAAAAAAAAAAAAAAAAAAAAAAAAAAAAA22222222222222222II
AAAAAAAAAAAAAAAAAAAAAAAAAAAAAAAAAAAAAAAAAAAAAA22222222222222222I
AAAAAAAAAAAAAAAAAAAAAAAAAAAAAAAAAAAAAAAAAAAAAAA22222222222222222
AAAAAAAAAAAAAAAAAAAAAAAAAAAAAAAAAAAAAAAAAAAAAAAA2222222222222222
AAAAAAAAAAAAAAAAAAAAAAAAAAAAAAAAAAAAAAAAAAAAAAAAA222222222222222
AAAAAAAAAAAAAAAAAAAAAAAAAAAAAAAAAAAAAAAAAAAAAAAAAA22222222222222
AAAAAAAAAAAAAAAAAAAAAAAAAAAAAAAAAAAAAAAAAAAAAAAAAAA2222222222222
AAAAAAAAAAAAAAAAAAAAAAAAAAAAAAAAAAAAAAAAAAAAAAAAAAAA222222222222
AAAAAAAAAAAAAAAAAAAAAAAAAAAAAAAAAAAAAAAAAAAAAAAAAAAAA22222222222
AAAAAAAAAAAAAAAAAAAAAAAAAAAAAAAAAAAAAAAAAAAAAAAAAAAAAA2222222222
AAAAAAAAAAAAAAAAAAAAAAAAAAAAAAAAAAAAAAAAAAAAAAAAAAAAAAA222222222
AAAAAAAAAAAAAAAAAAAAAAAAAAAAAAAAAAAAAAAAAAAAAAAAAAAAAAAA22222222
AAAAAAAAAAAAAAAAAAAAAAAAAAAAAAAAAAAAAAAAAAAAAAAAAAAAAAAAA2222222
AAAAAAAAAAAAAAAAAAAAAAAAAAAAAAAAAAAAAAAAAAAAAAAAAAAAAAAAAA222222
AAAAAAAAAAAAAAAAAAAAAAAAAAAAAAAAAAAAAAAAAAAAAAAAAAAAAAAAAAA22222
AAAAAAAAAAAAAAAAAAAAAAAAAAAAAAAAAAAAAAAAAAAAAAAAAAAAAAAAAAAA2222
AAAAAAAAAAAAAAAAAAAAAAAAAAAAAAAAAAAAAAAAAAAAAAAAAAAAAAAAAAAAA222
AAAAAAAAAAAAAAAAAAAAAAAAAAAAAAAAAAAAAAAAAAAAAAAAAAAAAAAAAAAAAA22
AAAAAAAAAAAAAAAAAAAAAAAAAAAAAAAAAAAAAAAAAAAAAAAAAAAAAAAAAAAAAAA2
AAAAAAAAAAAAAAAAAAAAAAAAAAAAAAAAAAAAAAAAAAAAAAAAAAAAAAAAAAAAAAAA
AAAAAAAAAAAAAAAAAAAAAAAAAAAAAAAAAAAAAAAAAAAAAAAAAIAAAAAAAAAAAAAA
AAAAAAAAAAAAAAAAAAAAAAAAAAAAAAAAAAAAAAAAAAAAAAAAAIIAAAAAAAAAAAAA
AAAAAAAAAAAAAAAAAAAAAAAAAAAAAAAAAAAAAAAAAAAAAAAAAIIIAAAAAAAAAAAA
AAAAAAAAAAAAAAAAAAAAAAAAAAAAAAAAAAAAAAAAAAAAAAAAAIIIIAAAAAAAAAAA
AAAAAAAAAAAAAAAAAAAAAAAAAAAAAAAAAAAAAAAAAAAAAAAAAIIIIIAAAAAAAAAA
AAAAAAAAAAAAAAAAAAAAAAAAAAAAAAAAAAAAAAAAAAAAAAAAAIIIIIIAAAAAAAAA
AAAAAAAAAAAAAAAAAAAAAAAAAAAAAAAAAAAAAAAAAAAAAAAAAIIIIIIIAAAAAAAA
AAAAAAAAAAAAAAAAAAAAAAAAAAAAAAAAAAAAAAAAAAAAAAAAAIIIIIIIIAAAAAAA
AAAAAAAAAAAAAAAAAAAAAAAAAAAAAAAAAAAAAAAAAAAAAAAAAIIIIIIIIIAAAAAA
AAAAAAAAAAAAAAAAAAAAAAAAAAAAAAAAAAAAAAAAAAAAAAAAAIIIIIIIIIIAAAAA
AAAAAAAAAAAAAAAAAAAAAAAAAAAAAAAAAAAAAAAAAAAAAAAAAIIIIIIIIIIIAAAA
AAAAAAAAAAAAAAAAAAAAAAAAAAAAAAAAAAAAAAAAAAAAAAAAAIIIIIIIIIIIIAAA
AAAAAAAAAAAAAAAAAAAAAAAAAAAAAAAAAAAAAAAAAAAAAAAAAIIIIIIIIIIIIIAA
AAAAAAAAAAAAAAAAAAAAAAAAAAAAAAAAAAAAAAAAAAAAAAAAAIIIIIIIIIIIIIIA
AAAAAAAAAAAAAAAAAAAAAAAAAAAAAAAAAAAAAAAAAAAAAAAAAIIIIIIIIIIIIIII
AIAAAAAAAAAAAAAAAAAAAAAAAAAAAAAAAAAAAAAAAAAAAAAAAIIIIIIIIIIIIIII
AIIAAAAAAAAAAAAAAAAAAAAAAAAAAAAAAAAAAAAAAAAAAAAAAIIIIIIIIIIIIIII
AIIIAAAAAAAAAAAAAAAAAAAAAAAAAAAAAAAAAAAAAAAAAAAAAIIIIIIIIIIIIIII
AIIIIAAAAAAAAAAAAAAAAAAAAAAAAAAAAAAAAAAAAAAAAAAAAIIIIIIIIIIIIIII
AIIIIIAAAAAAAAAAAAAAAAAAAAAAAAAAAAAAAAAAAAAAAAAAAIIIIIIIIIIIIIII
AIIIIIIAAAAAAAAAAAAAAAAAAAAAAAAAAAAAAAAAAAAAAAAAAIIIIIIIIIIIIIII
AIIIIIIIAAAAAAAAAAAAAAAAAAAAAAAAAAAAAAAAAAAAAAAAAIIIIIIIIIIIIIII
AIIIIIIIIAAAAAAAAAAAAAAAAAAAAAAAAAAAAAAAAAAAAAAAAIIIIIIIIIIIIIII
AIIIIIIIIIAAAAAAAAAAAAAAAAAAAAAAAAAAAAAAAAAAAAAAAIIIIIIIIIIIIIII
AIIIIIIIIIIAAAAAAAAAAAAAAAAAAAAAAAAAAAAAAAAAAAAAAIIIIIIIIIIIIIII
AIIIIIIIIIIIAAAAAAAAAAAAAAAAAAAAAAAAAAAAAAAAAAAAAIIIIIIIIIIIIIII
AIIIIIIIIIIIIAAAAAAAAAAAAAAAAAAAAAAAAAAAAAAAAAAAAIIIIIIIIIIIIIII
AIIIIIIIIIIIIIAAAAAAAAAAAAAAAAAAAAAAAAAAAAAAAAAAAIIIIIIIIIIIIIII
AIIIIIIIIIIIIIIAAAAAAAAAAAAAAAAAAAAAAAAAAAAAAAAAAIIIIIIIIIIIIIII
AIIIIIIIIIIIIIIIAAAAAAAAAAAAAAAAAAAAAAAAAAAAAAAAAIIIIIIIIIIIIIII
AIIIIIIIIIIIIIIIIAAAAAAAAAAAAAAAAAAAAAAAAAAAAAAAAIIIIIIIIIIIIIII
AIIIIIIIIIIIIIIIIIAAAAAAAAAAAAAAAAAAAAAAAAAAAAAAAIIIIIIIIIIIIIII
AIIIIIIIIIIIIIIIIIIAAAAAAAAAAAAAAAAAAAAAAAAAAAAAAIIIIIIIIIIIIIII
AIIIIIIIIIIIIIIIIIIIAAAAAAAAAAAAAAAAAAAAAAAAAAAAAIIIIIIIIIIIIIII
AIIIIIIIIIIIIIIIIIIIIAAAAAAAAAAAAAAAAAAAAAAAAAAAAIIIIIIIIIIIIIII
AIIIIIIIIIIIIIIIIIIIIIAAAAAAAAAAAAAAAAAAAAAAAAAAAIIIIIIIIIIIIIII
AIIIIIIIIIIIIIIIIIIIIIIAAAAAAAAAAAAAAAAAAAAAAAAAAIIIIIIIIIIIIIII
AIIIIIIIIIIIIIIIIIIIIIIIAAAAAAAAAAAAAAAAAAAAAAAAAIIIIIIIIIIIIIII
AIIIIIIIIIIIIIIIIIIIIIIIIAAAAAAAAAAAAAAAAAAAAAAAAIIIIIIIIIIIIIII
AIIIIIIIIIIIIIIIIIIIIIIIIIAAAAAAAAAAAAAAAAAAAAAAAIIIIIIIIIIIIIII
AIIIIIIIIIIIIIIIIIIIIIIIIIIAAAAAAAAAAAAAAAAAAAAAAIIIIIIIIIIIIIII
AIIIIIIIIIIIIIIIIIIIIIIIIIIIAAAAAAAAAAAAAAAAAAAAAIIIIIIIIIIIIIII
AIIIIIIIIIIIIIIIIIIIIIIIIIIIIAAAAAAAAAAAAAAAAAAAAIIIIIIIIIIIIIII
AIIIIIIIIIIIIIIIIIIIIIIIIIIIIIAAAAAAAAAAAAAAAAAAAIIIIIIIIIIIIIII
AIIIIIIIIIIIIIIIIIIIIIIIIIIIIIIAAAAAAAAAAAAAAAAAAIIIIIIIIIIIIIII
AIIIIIIIIIIIIIIIIIIIIIIIIIIIIIIIAAAAAAAAAAAAAAAAAIIIIIIIIIIIIIII
AIIIIIIIIIIIIIIIIIIIIIIIIIIIIIIIIAAAAAAAAAAAAAAAAIIIIIIIIIIIIIII
AIIIIIIIIIIIIIIIIIIIIIIIIIIIIIIIIIAAAAAAAAAAAAAAAIIIIIIIIIIIIIII
AIIIIIIIIIIIIIIIIIIIIIIIIIIIIIIIIIIAAAAAAAAAAAAAAIIIIIIIIIIIIIII
AIIIIIIIIIIIIIIIIIIIIIIIIIIIIIIIIIIIAAAAAAAAAAAAAIIIIIIIIIIIIIII
AIIIIIIIIIIIIIIIIIIIIIIIIIIIIIIIIIIIIAAAAAAAAAAAAIIIIIIIIIIIIIII
AIIIIIIIIIIIIIIIIIIIIIIIIIIIIIIIIIIIIIAAAAAAAAAAAIIIIIIIIIIIIIII
AIIIIIIIIIIIIIIIIIIIIIIIIIIIIIIIIIIIIIIAAAAAAAAAAIIIIIIIIIIIIIII
AIIIIIIIIIIIIIIIIIIIIIIIIIIIIIIIIIIIIIIIAAAAAAAAAIIIIIIIIIIIIIII
AIIIIIIIIIIIIIIIIIIIIIIIIIIIIIIIIIIIIIIIIAAAAAAAAIIIIIIIIIIIIIII
AIIIIIIIIIIIIIIIIIIIIIIIIIIIIIIIIIIIIIIIIIAAAAAAAIIIIIIIIIIIIIII
AIIIIIIIIIIIIIIIIIIIIIIIIIIIIIIIIIIIIIIIIIIAAAAAAIIIIIIIIIIIIIII
AIIIIIIIIIIIIIIIIIIIIIIIIIIIIIIIIIIIIIIIIIIIAAAAAIIIIIIIIIIIIIII
AIIIIIIIIIIIIIIIIIIIIIIIIIIIIIIIIIIIIIIIIIIIIAAAAIIIIIIIIIIIIIII
AIIIIIIIIIIIIIIIIIIIIIIIIIIIIIIIIIIIIIIIIIIIIIAAAIIIIIIIIIIIIIII
AIIIIIIIIIIIIIIIIIIIIIIIIIIIIIIIIIIIIIIIIIIIIIIAAIIIIIIIIIIIIIII
AIIIIIIIIIIIIIIIIIIIIIIIIIIIIIIIIIIIIIIIIIIIIIIIAIIIIIIIIIIIIIII
AIIIIIIIIIIIIIIIIIIIIIIIIIIIIIIIIIIIIIIIIIIIIIIIIIIIIIIIIIIIIIII
A2222222222222IIIIIIIIIIIIIIIIIIIIIIIIIIIIIIIIIIIIIIIIIIIIIIIIII
AA222222222222IIIIIIIIIIIIIIIIIIIIIIIIIIIIIIIIIIIIIIIIIIIIIIIIII
AAA2222222222222222IIIIIIIIIIIIIIIIIIIIIIIIIIIIIIIIIIIIIIIIIIIII
AAAA222222222222222IIIIIIIIIIIIIIIIIIIIIIIIIIIIIIIIIIIIIIIIIIIII
AAAAA2222222222222222IIIIIIIIIIIIIIIIIIIIIIIIIIIIIIIIIIIIIIIIIII
AAAAAA2222222222222222IIIIIIIIIIIIIIIIIIIIIIIIIIIIIIIIIIIIIIIIII
AAAAAAA2222222222222222IIIIIIIIIIIIIIIIIIIIIIIIIIIIIIIIIIIIIIIII
AAAAAAAA2222222222222222IIIIIIIIIIIIIIIIIIIIIIIIIIIIIIIIIIIIIIII
AAAAAAAAA2222222222222222IIIIIIIIIIIIIIIIIIIIIIIIIIIIIIIIIIIIIII
AAAAAAAAAA2222222222222222IIIIIIIIIIIIIIIIIIIIIIIIIIIIIIIIIIIIII
AAAAAAAAAAA2222222222222222IIIIIIIIIIIIIIIIIIIIIIIIIIIIIIIIIIIII
AAAAAAAAAAAA2222222222222222IIIIIIIIIIIIIIIIIIIIIIIIIIIIIIIIIIII
AAAAAAAAAAAAA2222222222222222IIIIIIIIIIIIIIIIIIIIIIIIIIIIIIIIIII
AAAAAAAAAAAAAA2222222222222222IIIIIIIIIIIIIIIIIIIIIIIIIIIIIIIIII
AAAAAAAAAAAAAAA2222222222222222IIIIIIIIIIIIIIIIIIIIIIIIIIIIIIIII
AAAAAAAAAAAAAAAA2222222222222222IIIIIIIIIIIIIIIIIIIIIIIIIIIIIIII
AAAAAAAAAAAAAAAAA2222222222222222IIIIIIIIIIIIIIIIIIIIIIIIIIIIIII
AAAAAAAAAAAAAAAAAA2222222222222222IIIIIIIIIIIIIIIIIIIIIIIIIIIIII
AAAAAAAAAAAAAAAAAAA2222222222222222IIIIIIIIIIIIIIIIIIIIIIIIIIIII
AAAAAAAAAAAAAAAAAAAA2222222222222222IIIIIIIIIIIIIIIIIIIIIIIIIIII
AAAAAAAAAAAAAAAAAAAAA2222222222222222IIIIIIIIIIIIIIIIIIIIIIIIIII
AAAAAAAAAAAAAAAAAAAAAA2222222222222222IIIIIIIIIIIIIIIIIIIIIIIIII
AAAAAAAAAAAAAAAAAAAAAAA2222222222222222IIIIIIIIIIIIIIIIIIIIIIIII
AAAAAAAAAAAAAAAAAAAAAAAA2222222222222222IIIIIIIIIIIIIIIIIIIIIIII
AAAAAAAAAAAAAAAAAAAAAAAAA2222222222222222IIIIIIIIIIIIIIIIIIIIIII
AAAAAAAAAAAAAAAAAAAAAAAAAA2222222222222222IIIIIIIIIIIIIIIIIIIIII
AAAAAAAAAAAAAAAAAAAAAAAAAAA2222222222222222IIIIIIIIIIIIIIIIIIIII
AAAAAAAAAAAAAAAAAAAAAAAAAAAA2222222222222222IIIIIIIIIIIIIIIIIIII
AAAAAAAAAAAAAAAAAAAAAAAAAAAAA2222222222222222IIIIIIIIIIIIIIIIIII
AAAAAAAAAAAAAAAAAAAAAAAAAAAAAA2222222222222222IIIIIIIIIIIIIIIIII
AAAAAAAAAAAAAAAAAAAAAAAAAAAAAAA2222222222222222IIIIIIIIIIIIIIIII
AAAAAAAAAAAAAAAAAAAAAAAAAAAAAAAA2222222222222222IIIIIIIIIIIIIIII
AAAAAAAAAAAAAAAAAAAAAAAAAAAAAAAAA2222222222222222IIIIIIIIIIIIIII
AAAAAAAAAAAAAAAAAAAAAAAAAAAAAAAAAA2222222222222222IIIIIIIIIIIIII
AAAAAAAAAAAAAAAAAAAAAAAAAAAAAAAAAAA2222222222222222IIIIIIIIIIIII
AAAAAAAAAAAAAAAAAAAAAAAAAAAAAAAAAAAA2222222222222222IIIIIIIIIIII
AAAAAAAAAAAAAAAAAAAAAAAAAAAAAAAAAAAAA2222222222222222IIIIIIIIIII
AAAAAAAAAAAAAAAAAAAAAAAAAAAAAAAAAAAAAA2222222222222222IIIIIIIIII
AAAAAAAAAAAAAAAAAAAAAAAAAAAAAAAAAAAAAAA2222222222222222IIIIIIIII
AAAAAAAAAAAAAAAAAAAAAAAAAAAAAAAAAAAAAAAA2222222222222222IIIIIIII
AAAAAAAAAAAAAAAAAAAAAAAAAAAAAAAAAAAAAAAAA2222222222222222IIIIIII
AAAAAAAAAAAAAAAAAAAAAAAAAAAAAAAAAAAAAAAAAA2222222222222222IIIIII
AAAAAAAAAAAAAAAAAAAAAAAAAAAAAAAAAAAAAAAAAAA2222222222222222IIIII
AAAAAAAAAAAAAAAAAAAAAAAAAAAAAAAAAAAAAAAAAAAA2222222222222222IIII
AAAAAAAAAAAAAAAAAAAAAAAAAAAAAAAAAAAAAAAAAAAAA2222222222222224III
AAAAAAAAAAAAAAAAAAAAAAAAAAAAAAAAAAAAAAAAAAAAAA2222222222222224II
AAAAAAAAAAAAAAAAAAAAAAAAAAAAAAAAAAAAAAAAAAAAAAA2222222222222224I
AAAAAAAAAAAAAAAAAAAAAAAAAAAAAAAAAAAAAAAAAAAAAAAA2222222222222224
AAAAAAAAAAAAAAAAAAAAAAAAAAAAAAAAAAAAAAAAAAAAAAAAA222222222222222
AAAAAAAAAAAAAAAAAAAAAAAAAAAAAAAAAAAAAAAAAAAAAAAAAA22222222222222
AAAAAAAAAAAAAAAAAAAAAAAAAAAAAAAAAAAAAAAAAAAAAAAAAAA2222222222222
AAAAAAAAAAAAAAAAAAAAAAAAAAAAAAAAAAAAAAAAAAAAAAAAAAAA222222222222
AAAAAAAAAAAAAAAAAAAAAAAAAAAAAAAAAAAAAAAAAAAAAAAAAAAAA22222222222
AAAAAAAAAAAAAAAAAAAAAAAAAAAAAAAAAAAAAAAAAAAAAAAAAAAAAA2222222222
AAAAAAAAAAAAAAAAAAAAAAAAAAAAAAAAAAAAAAAAAAAAAAAAAAAAAAA222222222
AAAAAAAAAAAAAAAAAAAAAAAAAAAAAAAAAAAAAAAAAAAAAAAAAAAAAAAA22222222
AAAAAAAAAAAAAAAAAAAAAAAAAAAAAAAAAAAAAAAAAAAAAAAAAAAAAAAAA2222222
AAAAAAAAAAAAAAAAAAAAAAAAAAAAAAAAAAAAAAAAAAAAAAAAAAAAAAAAAA222222
AAAAAAAAAAAAAAAAAAAAAAAAAAAAAAAAAAAAAAAAAAAAAAAAAAAAAAAAAAA22222
AAAAAAAAAAAAAAAAAAAAAAAAAAAAAAAAAAAAAAAAAAAAAAAAAAAAAAAAAAAA2222
AAAAAAAAAAAAAAAAAAAAAAAAAAAAAAAAAAAAAAAAAAAAAAAAAAAAAAAAAAAAA222
AAAAAAAAAAAAAAAAAAAAAAAAAAAAAAAAAAAAAAAAAAAAAAAAAAAAAAAAAAAAAA22
AAAAAAAAAAAAAAAAAAAAAAAAAAAAAAAAAAAAAAAAAAAAAAAAAAAAAAAAAAAAAAA2
AAAAAAAAAAAAAAAAAAAAAAAAAAAAAAAAAAAAAAAAAAAAAAAAAAAAAAAAAAAAAAAA
AAIAAAAAAAAAAAAAAAAAAAAAAAAAAAAAAAAAAAAAAAAAAAAAAAAAAAAAAAAAAAAA
AAIIAAAAAAAAAAAAAAAAAAAAAAAAAAAAAAAAAAAAAAAAAAAAAAAAAAAAAAAAAAAA
AAIIIAAAAAAAAAAAAAAAAAAAAAAAAAAAAAAAAAAAAAAAAAAAAAAAAAAAAAAAAAAA
AAIIIAIAAAAAAAAAAAAAAAAAAAAAAAAAAAAAAAAAAAAAAAAAAAAAAAAAAAAAAAAA
AAIIIAIIAAAAAAAAAAAAAAAAAAAAAAAAAAAAAAAAAAAAAAAAAAAAAAAAAAAAAAAA
AAIIIAIIIAAAAAAAAAAAAAAAAAAAAAAAAAAAAAAAAAAAAAAAAAAAAAAAAAAAAAAA
AAIIIIIIIAAAAAAAAAAAAAAAAAAAAAAAAAAAAAAAAAAAAAAAAAAAAAAAAAAAAAAA
AAIIIIIIIIAAAAAAAAAAAAAAAAAAAAAAAAAAAAAAAAAAAAAAAAAAAAAAAAAAAAAA
AAIIIIIIIIAIAAAAAAAAAAAAAAAAAAAAAAAAAAAAAAAAAAAAAAAAAAAAAAAAAAAA
AAIIIIIIIIAIIAAAAAAAAAAAAAAAAAAAAAAAAAAAAAAAAAAAAAAAAAAAAAAAAAAA
AAIIIIIIIIAIIIAAAAAAAAAAAAAAAAAAAAAAAAAAAAAAAAAAAAAAAAAAAAAAAAAA
AAIIIIIIIIAIIIIAAAAAAAAAAAAAAAAAAAAAAAAAAAAAAAAAAAAAAAAAAAAAAAAA
AAIIIIIIIIAIIIIIAAAAAAAAAAAAAAAAAAAAAAAAAAAAAAAAAAAAAAAAAAAAAAAA
AAIIIIIIIIAIIIIIIAAAAAAAAAAAAAAAAAAAAAAAAAAAAAAAAAAAAAAAAAAAAAAA
AAIIIIIIIIAIIIIIIIAAAAAAAAAAAAAAAAAAAAAAAAAAAAAAAAAAAAAAAAAAAAAA
AAIIIIIIIIIIIIIIIIAAAAAAAAAAAAAAAAAAAAAAAAAAAAAAAAAAAAAAAAAAAAAA
AAIIIIIIIIIIIIIIIIIAAAAAAAAAAAAAAAAAAAAAAAAAAAAAAAAAAAAAAAAAAAAA
AAIIIIIIIIIIIIIIIIIIAAAAAAAAAAAAAAAAAAAAAAAAAAAAAAAAAAAAAAAAAAAA
AAIIIIIIIIIIIIIIIIIIIAAAAAAAAAAAAAAAAAAAAAAAAAAAAAAAAAAAAAAAAAAA
AAIIIIIIIIIIIIIIIIIIIIAAAAAAAAAAAAAAAAAAAAAAAAAAAAAAAAAAAAAAAAAA
AAIIIIIIIIIIIIIIIIIIIIAAAAAAAAAAAAAAAAAIAAAAAAAAAAAAAAAAAAAAAAAA
AAIIIIIIIIIIIIIIIIIIIIAAAAAAAAAAAAAAAAAIIAAAAAAAAAAAAAAAAAAAAAAA
AAIIIIIIIIIIIIIIIIIIIIAAAAAAAAAAAAAAAAAIIAIAAAAAAAAAAAAAAAAAAAAA
AAIIIIIIIIIIIIIIIIIIIIAAAAAAAAAAAAAAAAAIIIIAAAAAAAAAAAAAAAAAAAAA
AAIIIIIIIIIIIIIIIIIIIIAAAAAAAAAAAAAAAAAIIIIIAAAAAAAAAAAAAAAAAAAA
AAIIIIIIIIIIIIIIIIIIIIAAAAAAAAAAAAAAAAAIIIIIIAAAAAAAAAAAAAAAAAAA
AAIIIIIIIIIIIIIIIIIIIIAAAAAAAAAAAAAAAAAIIIIIIIAAAAAAAAAAAAAAAAAA
AAIIIIIIIIIIIIIIIIIIIIAAAAAAAAAAAAAAAAAIIIIIIIIAAAAAAAAAAAAAAAAA
AAIIIIIIIIIIIIIIIIIIIIAAAAAAAAAAAAAAAAAIIIIIIIIIAAAAAAAAAAAAAAAA
AAIIIIIIIIIIIIIIIIIIIIAAAAAAAAAAAAAAAAAIIIIIIIIIIAAAAAAAAAAAAAAA
AAIIIIIIIIIIIIIIIIIIIIAAAAAAAAAAAAAAAAAIIIIIIIIIIIAAAAAAAAAAAAAA
AAIIIIIIIIIIIIIIIIIIIIAAAAAAAAAAAAAAAAAIIIIIIIIIIIIAAAAAAAAAAAAA
AAIIIIIIIIIIIIIIIIIIIIAAAAAAAAAAAAAAAAAIIIIIIIIIIIIIAAAAAAAAAAAA
AAIIIIIIIIIIIIIIIIIIIIAAAAAAAAAAAAAAAAAIIIIIIIIIIIIIIAAAAAAAAAAA
AAIIIIIIIIIIIIIIIIIIIIAAAAAAAAAAAAAAAAAIIIIIIIIIIIIIIIAAAAAAAAAA
AAIIIIIIIIIIIIIIIIIIIIAAAAAAAAAAAAAAAAAIIIIIIIIIIIIIIIIAAAAAAAAA
AAIIIIIIIIIIIIIIIIIIIIAAAAAAAAAAAAAAAAAIIIIIIIIIIIIIIIIIAAAAAAAA
AAIIIIIIIIIIIIIIIIIIIIAAAAAAAAAAAAAAAAAIIIIIIIIIIIIIIIIIIAAAAAAA
AAIIIIIIIIIIIIIIIIIIIIAAAAAAAAAAAAAAAAAIIIIIIIIIIIIIIIIIIIAAAAAA
AAIIIIIIIIIIIIIIIIIIIIAAAAAAAAAAAAAAAAAIIIIIIIIIIIIIIIIIIIIAAAAA
AAIIIIIIIIIIIIIIIIIIIIAAAAAAAAAAAAAAAAAIIIIIIIIIIIIIIIIIIIIIAAAA
AAIIIIIIIIIIIIIIIIIIIIAAAAAAAAAAAAAAAAAIIIIIIIIIIIIIIIIIIIIIIAAA
AAIIIIIIIIIIIIIIIIIIIIAAAAAAAAAAAAAAAAAIIIIIIIIIIIIIIIIIIIIIIIAA
AAIIIIIIIIIIIIIIIIIIIIAAAAAAAAAAAAAAAAAIIIIIIIIIIIIIIIIIIIIIIIIA
AAIIIIIIIIIIIIIIIIIIIIAAAAAAAAAAAAAAAAAIIIIIIIIIIIIIIIIIIIIIIIII
[MLOP] Prefetch Degree Mean: 15.90109
[MLOP] Prefetch Degree SD: 0.46945
[MLOP] Max Score Left Mean (%): 75.18702
[MLOP] Max Score Left SD (%): 2.34429
[MLOP] Max Score Right Mean (%): 99.98619
[MLOP] Max Score Right SD (%): 0.06193

Channel_0_RQ_row_buffer_hit 6959581
Channel_0_RQ_row_buffer_miss 2188687
Channel_0_WQ_row_buffer_hit 87179
Channel_0_WQ_row_buffer_miss 301565
Channel_0_WQ_full 412
Channel_0_dbus_congested 3841785

avg_congested_cycle 10

DRAM_bw_pochs 1960192
DRAM_bw_level_0 821115
DRAM_bw_level_1 359912
DRAM_bw_level_2 286754
DRAM_bw_level_3 492411
