*************************************************
   ChampSim Multicore Out-of-Order Simulator
   Last compiled: Nov 21 2024 21:50:18
*************************************************
parsing config file: /home/shichen/os/compile-time-prefetcher-classification/ChampSim/config/pythia.ini

trace_0 /home/shichen/os/compile-time-prefetcher-classification/ChampSim/traces/410.bwaves-2097B.champsimtrace.xz
adding L2C_PREFETCHER: Scooby
Initialize SHIP state
warmup_instructions 100000000
simulation_instructions 500000000
champsim_seed 276
measure_ipc 0
measure_ipc_epoch 1000
measure_dram_bw 1
measure_dram_bw_epoch 256
measure_cache_acc 1
measure_cache_acc_epoch 1024
l1d_perfect 0
l2c_perfect 0
llc_perfect 0
l1d_semi_perfect 0
l2c_semi_perfect 0
llc_semi_perfect 0
semi_perfect_cache_page_buffer_size 64

num_cpus 1
cpu_freq 4000
dram_io_freq 2400
page_size 4096
block_size 64
max_read_per_cycle 8
max_fill_per_cycle 1
dram_channels 1
log2_dram_channels 0
dram_ranks 1
dram_banks 8
dram_rows 65536
dram_columns 128
dram_row_size 8
dram_size 4096
dram_pages 1048576

fetch_width 6
decode_width 6
exec_width 4
lq_width 2
sq_width 2
retire_width 4
scheduler_size 128
branch_mispredict_penalty 20
rob_size 256
lq_size 72
sq_size 56
num_instr_destinations_sparc 4
num_instr_destinations 2
num_instr_sources 4

itlb_set 16
itlb_way 8
itlb_rq_size 16
itlb_wq_size 16
itlb_pq_size 0
itlb_mshr_size 8
itlb_latency 1

dtlb_set 16
dtlb_way 4
dtlb_rq_size 16
dtlb_wq_size 16
dtlb_pq_size 0
dtlb_mshr_size 8
dtlb_latency 1

stlb_set 128
stlb_way 12
stlb_rq_size 32
stlb_wq_size 32
stlb_pq_size 0
stlb_mshr_size 16
stlb_latency 8

l1i_size 32
l1i_set 64
l1i_way 8
l1i_rq_size 64
l1i_wq_size 64
l1i_pq_size 8
l1i_mshr_size 8
l1i_latency 1

l1d_size 32
l1d_set 64
l1d_way 8
l1d_rq_size 64
l1d_wq_size 64
l1d_pq_size 8
l1d_mshr_size 16
l1d_latency 4

l2c_size 256
l2c_set 512
l2c_way 8
l2c_rq_size 32
l2c_wq_size 32
l2c_pq_size 32
l2c_mshr_size 32
l2c_latency 10

llc_size 2048
llc_set 2048
llc_way 16
llc_rq_size 32
llc_wq_size 32
llc_pq_size 32
llc_mshr_size 64
llc_latency 20

dram_channel_width 8
dram_wq_size 64
dram_rq_size 64
tRP 15
tRCD 15
tCAS 12.5
dram_dbus_turn_around_time 30
dram_write_high_wm 56
dram_write_low_wm 48
min_dram_writes_per_switch 16
dram_mtps 2400
dram_dbus_return_time 13

scooby_alpha 0.0065088
scooby_gamma 0.556301
scooby_epsilon 0.00182284
scooby_state_num_bits 10
scooby_max_states 1024
scooby_seed 200
scooby_policy EGreedy
scooby_learning_type SARSA
scooby_actions 1,3,4,5,10,11,12,22,23,30,32,-1,-3,-6,0,
scooby_max_actions 15
scooby_pt_size 256
scooby_st_size 64
scooby_max_pcs 5
scooby_max_offsets 5
scooby_max_deltas 5
scooby_reward_none -4
scooby_reward_incorrect -8
scooby_reward_correct_untimely 12
scooby_reward_correct_timely 20
scooby_brain_zero_init 0
scooby_enable_reward_all 0
scooby_enable_track_multiple 0
scooby_enable_reward_out_of_bounds 1
scooby_reward_out_of_bounds -12
scooby_state_type 1
scooby_state_hash_type 11
scooby_access_debug 0
scooby_print_access_debug 0
scooby_print_access_debug_pc deadbeef
scooby_print_access_debug_pc_count 0
scooby_print_trace 0
scooby_enable_state_action_stats 1
scooby_enable_reward_tracker_hit 0
scooby_reward_tracker_hit -2
scooby_enable_featurewise_engine 1
scooby_pref_degree 1
scooby_enable_dyn_degree 1
scooby_max_to_avg_q_thresholds 0.5,1,2,
scooby_dyn_degrees 1,2,4,4,
scooby_multi_deg_select_type 2
scooby_last_pref_offset_conf_thresholds 1,3,8,
scooby_dyn_degrees_type2 1,2,4,6,
scooby_action_tracker_size 2
scooby_high_bw_thresh 4
scooby_enable_hbw_reward 1
scooby_reward_hbw_correct_timely 20
scooby_reward_hbw_correct_untimely 12
scooby_reward_hbw_incorrect -14
scooby_reward_hbw_none -2
scooby_reward_hbw_out_of_bounds -12
scooby_reward_hbw_tracker_hit -2
scooby_last_pref_offset_conf_thresholds_hbw 1,3,8,
scooby_dyn_degrees_type2_hbw 1,2,4,6,

le_enable_trace 0
le_trace_interval 0
le_trace_file_name 
le_trace_state 0
le_enable_score_plot 0
le_plot_file_name 
le_plot_actions 
le_enable_action_trace 0
le_action_trace_interval 0
le_action_trace_name 
le_enable_action_plot 0

le_featurewise_active_features PC, PC_Delta
le_featurewise_num_tilings 3,3,
le_featurewise_num_tiles 128,128,
le_featurewise_hash_types 2,2,
le_featurewise_enable_tiling_offset 1,1,
le_featurewise_max_q_thresh 0.5
le_featurewise_enable_action_fallback 1
le_featurewise_feature_weights 1,1,
le_featurewise_enable_dynamic_weight 0
le_featurewise_weight_gradient 0.001
le_featurewise_disable_adjust_weight_all_features_align 1
le_featurewise_selective_update 0
le_featurewise_pooling_type 2
le_featurewise_enable_dyn_action_fallback 1
le_featurewise_bw_acc_check_level 1
le_featurewise_acc_thresh 2
le_featurewise_enable_trace 0
le_featurewise_trace_feature_type 0
le_featurewise_trace_feature 
le_featurewise_trace_interval 0
le_featurewise_trace_record_count 0
le_featurewise_trace_file_name 
le_featurewise_enable_score_plot 0
le_featurewise_plot_actions 
le_featurewise_plot_file_name 


Heartbeat CPU  0 instructions:    1000002 cycles:     653868 heartbeat IPC: 1.52936 cumulative IPC: 1.52936 (Simulation time: 0 hr 0 min 3 sec) 
Heartbeat CPU  0 instructions:    2000002 cycles:    1307254 heartbeat IPC: 1.53049 cumulative IPC: 1.52993 (Simulation time: 0 hr 0 min 6 sec) 
Heartbeat CPU  0 instructions:    3000001 cycles:    1960644 heartbeat IPC: 1.53048 cumulative IPC: 1.53011 (Simulation time: 0 hr 0 min 9 sec) 
Heartbeat CPU  0 instructions:    4000000 cycles:    2614076 heartbeat IPC: 1.53038 cumulative IPC: 1.53018 (Simulation time: 0 hr 0 min 11 sec) 
Heartbeat CPU  0 instructions:    5000001 cycles:    3267427 heartbeat IPC: 1.53057 cumulative IPC: 1.53026 (Simulation time: 0 hr 0 min 14 sec) 
Heartbeat CPU  0 instructions:    6000002 cycles:    3920717 heartbeat IPC: 1.53072 cumulative IPC: 1.53033 (Simulation time: 0 hr 0 min 17 sec) 
Heartbeat CPU  0 instructions:    7000003 cycles:    4573915 heartbeat IPC: 1.53093 cumulative IPC: 1.53042 (Simulation time: 0 hr 0 min 19 sec) 
Heartbeat CPU  0 instructions:    8000000 cycles:    5227212 heartbeat IPC: 1.53069 cumulative IPC: 1.53045 (Simulation time: 0 hr 0 min 22 sec) 
Heartbeat CPU  0 instructions:    9000001 cycles:    5880484 heartbeat IPC: 1.53076 cumulative IPC: 1.53049 (Simulation time: 0 hr 0 min 25 sec) 
Heartbeat CPU  0 instructions:   10000000 cycles:    6533883 heartbeat IPC: 1.53046 cumulative IPC: 1.53048 (Simulation time: 0 hr 0 min 27 sec) 
Heartbeat CPU  0 instructions:   11000002 cycles:    7187214 heartbeat IPC: 1.53062 cumulative IPC: 1.53050 (Simulation time: 0 hr 0 min 30 sec) 
Heartbeat CPU  0 instructions:   12000000 cycles:    7840586 heartbeat IPC: 1.53052 cumulative IPC: 1.53050 (Simulation time: 0 hr 0 min 33 sec) 
Heartbeat CPU  0 instructions:   13000000 cycles:    8494021 heartbeat IPC: 1.53037 cumulative IPC: 1.53049 (Simulation time: 0 hr 0 min 35 sec) 
Heartbeat CPU  0 instructions:   14000001 cycles:    9147439 heartbeat IPC: 1.53042 cumulative IPC: 1.53048 (Simulation time: 0 hr 0 min 38 sec) 
Heartbeat CPU  0 instructions:   15000002 cycles:    9800815 heartbeat IPC: 1.53051 cumulative IPC: 1.53049 (Simulation time: 0 hr 0 min 41 sec) 
Heartbeat CPU  0 instructions:   16000000 cycles:   10454258 heartbeat IPC: 1.53035 cumulative IPC: 1.53048 (Simulation time: 0 hr 0 min 44 sec) 
Heartbeat CPU  0 instructions:   17000002 cycles:   11107764 heartbeat IPC: 1.53021 cumulative IPC: 1.53046 (Simulation time: 0 hr 0 min 46 sec) 
Heartbeat CPU  0 instructions:   18000003 cycles:   11761194 heartbeat IPC: 1.53039 cumulative IPC: 1.53046 (Simulation time: 0 hr 0 min 49 sec) 
Heartbeat CPU  0 instructions:   19000000 cycles:   12414638 heartbeat IPC: 1.53035 cumulative IPC: 1.53045 (Simulation time: 0 hr 0 min 52 sec) 
Heartbeat CPU  0 instructions:   20000000 cycles:   13068127 heartbeat IPC: 1.53025 cumulative IPC: 1.53044 (Simulation time: 0 hr 0 min 54 sec) 
Heartbeat CPU  0 instructions:   21000001 cycles:   13721590 heartbeat IPC: 1.53031 cumulative IPC: 1.53043 (Simulation time: 0 hr 0 min 57 sec) 
Heartbeat CPU  0 instructions:   22000003 cycles:   14375124 heartbeat IPC: 1.53015 cumulative IPC: 1.53042 (Simulation time: 0 hr 1 min 0 sec) 
Heartbeat CPU  0 instructions:   23000001 cycles:   15028495 heartbeat IPC: 1.53052 cumulative IPC: 1.53043 (Simulation time: 0 hr 1 min 3 sec) 
Heartbeat CPU  0 instructions:   24000000 cycles:   15682070 heartbeat IPC: 1.53004 cumulative IPC: 1.53041 (Simulation time: 0 hr 1 min 6 sec) 
Heartbeat CPU  0 instructions:   25000001 cycles:   16335522 heartbeat IPC: 1.53034 cumulative IPC: 1.53041 (Simulation time: 0 hr 1 min 8 sec) 
Heartbeat CPU  0 instructions:   26000000 cycles:   16989070 heartbeat IPC: 1.53011 cumulative IPC: 1.53040 (Simulation time: 0 hr 1 min 11 sec) 
Heartbeat CPU  0 instructions:   27000001 cycles:   17642446 heartbeat IPC: 1.53051 cumulative IPC: 1.53040 (Simulation time: 0 hr 1 min 14 sec) 
Heartbeat CPU  0 instructions:   28000000 cycles:   18295671 heartbeat IPC: 1.53086 cumulative IPC: 1.53042 (Simulation time: 0 hr 1 min 17 sec) 
Heartbeat CPU  0 instructions:   29000000 cycles:   18949029 heartbeat IPC: 1.53055 cumulative IPC: 1.53042 (Simulation time: 0 hr 1 min 19 sec) 
Heartbeat CPU  0 instructions:   30000002 cycles:   19602312 heartbeat IPC: 1.53073 cumulative IPC: 1.53043 (Simulation time: 0 hr 1 min 22 sec) 
Heartbeat CPU  0 instructions:   31000000 cycles:   20255608 heartbeat IPC: 1.53070 cumulative IPC: 1.53044 (Simulation time: 0 hr 1 min 25 sec) 
Heartbeat CPU  0 instructions:   32000000 cycles:   20908934 heartbeat IPC: 1.53063 cumulative IPC: 1.53045 (Simulation time: 0 hr 1 min 27 sec) 
Heartbeat CPU  0 instructions:   33000000 cycles:   21562302 heartbeat IPC: 1.53053 cumulative IPC: 1.53045 (Simulation time: 0 hr 1 min 30 sec) 
Heartbeat CPU  0 instructions:   34000001 cycles:   22215630 heartbeat IPC: 1.53063 cumulative IPC: 1.53045 (Simulation time: 0 hr 1 min 33 sec) 
Heartbeat CPU  0 instructions:   35000000 cycles:   22869128 heartbeat IPC: 1.53023 cumulative IPC: 1.53045 (Simulation time: 0 hr 1 min 35 sec) 
Heartbeat CPU  0 instructions:   36000000 cycles:   23522424 heartbeat IPC: 1.53070 cumulative IPC: 1.53045 (Simulation time: 0 hr 1 min 38 sec) 
Heartbeat CPU  0 instructions:   37000000 cycles:   24175818 heartbeat IPC: 1.53047 cumulative IPC: 1.53045 (Simulation time: 0 hr 1 min 41 sec) 
Heartbeat CPU  0 instructions:   38000001 cycles:   24829074 heartbeat IPC: 1.53079 cumulative IPC: 1.53046 (Simulation time: 0 hr 1 min 44 sec) 
Heartbeat CPU  0 instructions:   39000002 cycles:   25482435 heartbeat IPC: 1.53055 cumulative IPC: 1.53047 (Simulation time: 0 hr 1 min 46 sec) 
Heartbeat CPU  0 instructions:   40000000 cycles:   26135724 heartbeat IPC: 1.53071 cumulative IPC: 1.53047 (Simulation time: 0 hr 1 min 49 sec) 
Heartbeat CPU  0 instructions:   41000000 cycles:   26789085 heartbeat IPC: 1.53055 cumulative IPC: 1.53047 (Simulation time: 0 hr 1 min 52 sec) 
Heartbeat CPU  0 instructions:   42000001 cycles:   27442444 heartbeat IPC: 1.53055 cumulative IPC: 1.53048 (Simulation time: 0 hr 1 min 54 sec) 
Heartbeat CPU  0 instructions:   43000003 cycles:   28095791 heartbeat IPC: 1.53058 cumulative IPC: 1.53048 (Simulation time: 0 hr 1 min 57 sec) 
Heartbeat CPU  0 instructions:   44000000 cycles:   28749298 heartbeat IPC: 1.53020 cumulative IPC: 1.53047 (Simulation time: 0 hr 2 min 0 sec) 
Heartbeat CPU  0 instructions:   45000000 cycles:   29402773 heartbeat IPC: 1.53028 cumulative IPC: 1.53047 (Simulation time: 0 hr 2 min 2 sec) 
Heartbeat CPU  0 instructions:   46000000 cycles:   30056189 heartbeat IPC: 1.53042 cumulative IPC: 1.53047 (Simulation time: 0 hr 2 min 5 sec) 
Heartbeat CPU  0 instructions:   47000002 cycles:   30709644 heartbeat IPC: 1.53033 cumulative IPC: 1.53046 (Simulation time: 0 hr 2 min 8 sec) 
Heartbeat CPU  0 instructions:   48000000 cycles:   31363041 heartbeat IPC: 1.53046 cumulative IPC: 1.53046 (Simulation time: 0 hr 2 min 11 sec) 
Heartbeat CPU  0 instructions:   49000001 cycles:   32016479 heartbeat IPC: 1.53037 cumulative IPC: 1.53046 (Simulation time: 0 hr 2 min 13 sec) 
Heartbeat CPU  0 instructions:   50000002 cycles:   32669914 heartbeat IPC: 1.53038 cumulative IPC: 1.53046 (Simulation time: 0 hr 2 min 16 sec) 
Heartbeat CPU  0 instructions:   51000003 cycles:   33323275 heartbeat IPC: 1.53055 cumulative IPC: 1.53046 (Simulation time: 0 hr 2 min 19 sec) 
Heartbeat CPU  0 instructions:   52000000 cycles:   33976668 heartbeat IPC: 1.53047 cumulative IPC: 1.53046 (Simulation time: 0 hr 2 min 21 sec) 
Heartbeat CPU  0 instructions:   53000000 cycles:   34630066 heartbeat IPC: 1.53046 cumulative IPC: 1.53046 (Simulation time: 0 hr 2 min 24 sec) 
Heartbeat CPU  0 instructions:   54000000 cycles:   35283452 heartbeat IPC: 1.53049 cumulative IPC: 1.53046 (Simulation time: 0 hr 2 min 27 sec) 
Heartbeat CPU  0 instructions:   55000002 cycles:   35936812 heartbeat IPC: 1.53055 cumulative IPC: 1.53046 (Simulation time: 0 hr 2 min 29 sec) 
Heartbeat CPU  0 instructions:   56000000 cycles:   36590317 heartbeat IPC: 1.53021 cumulative IPC: 1.53046 (Simulation time: 0 hr 2 min 32 sec) 
Heartbeat CPU  0 instructions:   57000002 cycles:   37243616 heartbeat IPC: 1.53070 cumulative IPC: 1.53046 (Simulation time: 0 hr 2 min 35 sec) 
Heartbeat CPU  0 instructions:   58000000 cycles:   37897079 heartbeat IPC: 1.53031 cumulative IPC: 1.53046 (Simulation time: 0 hr 2 min 38 sec) 
Heartbeat CPU  0 instructions:   59000002 cycles:   38550331 heartbeat IPC: 1.53081 cumulative IPC: 1.53047 (Simulation time: 0 hr 2 min 40 sec) 
Heartbeat CPU  0 instructions:   60000000 cycles:   39203780 heartbeat IPC: 1.53034 cumulative IPC: 1.53046 (Simulation time: 0 hr 2 min 43 sec) 
Heartbeat CPU  0 instructions:   61000002 cycles:   39857067 heartbeat IPC: 1.53072 cumulative IPC: 1.53047 (Simulation time: 0 hr 2 min 46 sec) 
Heartbeat CPU  0 instructions:   62000000 cycles:   40510286 heartbeat IPC: 1.53088 cumulative IPC: 1.53048 (Simulation time: 0 hr 2 min 48 sec) 
Heartbeat CPU  0 instructions:   63000001 cycles:   41163531 heartbeat IPC: 1.53082 cumulative IPC: 1.53048 (Simulation time: 0 hr 2 min 51 sec) 
Heartbeat CPU  0 instructions:   64000000 cycles:   41816797 heartbeat IPC: 1.53077 cumulative IPC: 1.53049 (Simulation time: 0 hr 2 min 54 sec) 
Heartbeat CPU  0 instructions:   65000000 cycles:   42470089 heartbeat IPC: 1.53071 cumulative IPC: 1.53049 (Simulation time: 0 hr 2 min 56 sec) 
Heartbeat CPU  0 instructions:   66000000 cycles:   43123406 heartbeat IPC: 1.53065 cumulative IPC: 1.53049 (Simulation time: 0 hr 2 min 59 sec) 
Heartbeat CPU  0 instructions:   67000001 cycles:   43776839 heartbeat IPC: 1.53038 cumulative IPC: 1.53049 (Simulation time: 0 hr 3 min 2 sec) 
Heartbeat CPU  0 instructions:   68000000 cycles:   44430098 heartbeat IPC: 1.53078 cumulative IPC: 1.53049 (Simulation time: 0 hr 3 min 4 sec) 
Heartbeat CPU  0 instructions:   69000002 cycles:   45083447 heartbeat IPC: 1.53058 cumulative IPC: 1.53050 (Simulation time: 0 hr 3 min 7 sec) 
Heartbeat CPU  0 instructions:   70000003 cycles:   45736743 heartbeat IPC: 1.53070 cumulative IPC: 1.53050 (Simulation time: 0 hr 3 min 10 sec) 
Heartbeat CPU  0 instructions:   71000003 cycles:   46390144 heartbeat IPC: 1.53045 cumulative IPC: 1.53050 (Simulation time: 0 hr 3 min 12 sec) 
Heartbeat CPU  0 instructions:   72000000 cycles:   47043505 heartbeat IPC: 1.53054 cumulative IPC: 1.53050 (Simulation time: 0 hr 3 min 15 sec) 
Heartbeat CPU  0 instructions:   73000002 cycles:   47696881 heartbeat IPC: 1.53052 cumulative IPC: 1.53050 (Simulation time: 0 hr 3 min 18 sec) 
Heartbeat CPU  0 instructions:   74000000 cycles:   48350218 heartbeat IPC: 1.53060 cumulative IPC: 1.53050 (Simulation time: 0 hr 3 min 21 sec) 
Heartbeat CPU  0 instructions:   75000000 cycles:   49003585 heartbeat IPC: 1.53053 cumulative IPC: 1.53050 (Simulation time: 0 hr 3 min 23 sec) 
Heartbeat CPU  0 instructions:   76000000 cycles:   49656941 heartbeat IPC: 1.53056 cumulative IPC: 1.53050 (Simulation time: 0 hr 3 min 26 sec) 
Heartbeat CPU  0 instructions:   77000000 cycles:   50310323 heartbeat IPC: 1.53050 cumulative IPC: 1.53050 (Simulation time: 0 hr 3 min 29 sec) 
Heartbeat CPU  0 instructions:   78000000 cycles:   50963814 heartbeat IPC: 1.53024 cumulative IPC: 1.53050 (Simulation time: 0 hr 3 min 31 sec) 
Heartbeat CPU  0 instructions:   79000000 cycles:   51617232 heartbeat IPC: 1.53041 cumulative IPC: 1.53050 (Simulation time: 0 hr 3 min 34 sec) 
Heartbeat CPU  0 instructions:   80000000 cycles:   52270602 heartbeat IPC: 1.53053 cumulative IPC: 1.53050 (Simulation time: 0 hr 3 min 37 sec) 
Heartbeat CPU  0 instructions:   81000001 cycles:   52923968 heartbeat IPC: 1.53054 cumulative IPC: 1.53050 (Simulation time: 0 hr 3 min 39 sec) 
Heartbeat CPU  0 instructions:   82000002 cycles:   53577431 heartbeat IPC: 1.53031 cumulative IPC: 1.53050 (Simulation time: 0 hr 3 min 42 sec) 
Heartbeat CPU  0 instructions:   83000003 cycles:   54230667 heartbeat IPC: 1.53084 cumulative IPC: 1.53050 (Simulation time: 0 hr 3 min 45 sec) 
Heartbeat CPU  0 instructions:   84000000 cycles:   54883868 heartbeat IPC: 1.53092 cumulative IPC: 1.53050 (Simulation time: 0 hr 3 min 47 sec) 
Heartbeat CPU  0 instructions:   85000001 cycles:   55537179 heartbeat IPC: 1.53067 cumulative IPC: 1.53051 (Simulation time: 0 hr 3 min 50 sec) 
Heartbeat CPU  0 instructions:   86000002 cycles:   56190397 heartbeat IPC: 1.53088 cumulative IPC: 1.53051 (Simulation time: 0 hr 3 min 53 sec) 
Heartbeat CPU  0 instructions:   87000003 cycles:   56843708 heartbeat IPC: 1.53067 cumulative IPC: 1.53051 (Simulation time: 0 hr 3 min 56 sec) 
Heartbeat CPU  0 instructions:   88000000 cycles:   57496820 heartbeat IPC: 1.53113 cumulative IPC: 1.53052 (Simulation time: 0 hr 3 min 58 sec) 
Heartbeat CPU  0 instructions:   89000001 cycles:   58150178 heartbeat IPC: 1.53056 cumulative IPC: 1.53052 (Simulation time: 0 hr 4 min 1 sec) 
Heartbeat CPU  0 instructions:   90000001 cycles:   58803456 heartbeat IPC: 1.53074 cumulative IPC: 1.53052 (Simulation time: 0 hr 4 min 4 sec) 
Heartbeat CPU  0 instructions:   91000000 cycles:   59456734 heartbeat IPC: 1.53074 cumulative IPC: 1.53052 (Simulation time: 0 hr 4 min 7 sec) 
Heartbeat CPU  0 instructions:   92000000 cycles:   60109935 heartbeat IPC: 1.53092 cumulative IPC: 1.53053 (Simulation time: 0 hr 4 min 9 sec) 
Heartbeat CPU  0 instructions:   93000002 cycles:   60763392 heartbeat IPC: 1.53033 cumulative IPC: 1.53053 (Simulation time: 0 hr 4 min 12 sec) 
Heartbeat CPU  0 instructions:   94000001 cycles:   61416690 heartbeat IPC: 1.53069 cumulative IPC: 1.53053 (Simulation time: 0 hr 4 min 15 sec) 
Heartbeat CPU  0 instructions:   95000000 cycles:   62070040 heartbeat IPC: 1.53057 cumulative IPC: 1.53053 (Simulation time: 0 hr 4 min 17 sec) 
Heartbeat CPU  0 instructions:   96000000 cycles:   62723359 heartbeat IPC: 1.53065 cumulative IPC: 1.53053 (Simulation time: 0 hr 4 min 20 sec) 
Heartbeat CPU  0 instructions:   97000001 cycles:   63376713 heartbeat IPC: 1.53057 cumulative IPC: 1.53053 (Simulation time: 0 hr 4 min 23 sec) 
Heartbeat CPU  0 instructions:   98000000 cycles:   64030151 heartbeat IPC: 1.53037 cumulative IPC: 1.53053 (Simulation time: 0 hr 4 min 26 sec) 
Heartbeat CPU  0 instructions:   99000001 cycles:   64683483 heartbeat IPC: 1.53062 cumulative IPC: 1.53053 (Simulation time: 0 hr 4 min 28 sec) 
Heartbeat CPU  0 instructions:  100000000 cycles:   65336893 heartbeat IPC: 1.53043 cumulative IPC: 1.53053 (Simulation time: 0 hr 4 min 31 sec) 

Warmup complete CPU  0 instructions:  100000001 cycles:   65336907 (Simulation time: 0 hr 4 min 31 sec) 

Heartbeat CPU  0 instructions:  101000002 cycles:   66182407 heartbeat IPC: 1.18271 cumulative IPC: 1.18273 (Simulation time: 0 hr 4 min 34 sec) 
Heartbeat CPU  0 instructions:  102000000 cycles:   67034423 heartbeat IPC: 1.17368 cumulative IPC: 1.17819 (Simulation time: 0 hr 4 min 37 sec) 
Heartbeat CPU  0 instructions:  103000003 cycles:   67880128 heartbeat IPC: 1.18245 cumulative IPC: 1.17961 (Simulation time: 0 hr 4 min 40 sec) 
Heartbeat CPU  0 instructions:  104000000 cycles:   68733570 heartbeat IPC: 1.17172 cumulative IPC: 1.17763 (Simulation time: 0 hr 4 min 43 sec) 
Heartbeat CPU  0 instructions:  105000000 cycles:   69581068 heartbeat IPC: 1.17994 cumulative IPC: 1.17809 (Simulation time: 0 hr 4 min 46 sec) 
Heartbeat CPU  0 instructions:  106000000 cycles:   70429445 heartbeat IPC: 1.17872 cumulative IPC: 1.17819 (Simulation time: 0 hr 4 min 50 sec) 
Heartbeat CPU  0 instructions:  107000000 cycles:   71275630 heartbeat IPC: 1.18177 cumulative IPC: 1.17870 (Simulation time: 0 hr 4 min 53 sec) 
Heartbeat CPU  0 instructions:  108000000 cycles:   72123732 heartbeat IPC: 1.17910 cumulative IPC: 1.17875 (Simulation time: 0 hr 4 min 56 sec) 
Heartbeat CPU  0 instructions:  109000000 cycles:   72967050 heartbeat IPC: 1.18579 cumulative IPC: 1.17953 (Simulation time: 0 hr 4 min 59 sec) 
Heartbeat CPU  0 instructions:  110000001 cycles:   73816490 heartbeat IPC: 1.17725 cumulative IPC: 1.17930 (Simulation time: 0 hr 5 min 2 sec) 
Heartbeat CPU  0 instructions:  111000001 cycles:   74662350 heartbeat IPC: 1.18223 cumulative IPC: 1.17957 (Simulation time: 0 hr 5 min 5 sec) 
Heartbeat CPU  0 instructions:  112000000 cycles:   75511204 heartbeat IPC: 1.17806 cumulative IPC: 1.17944 (Simulation time: 0 hr 5 min 8 sec) 
Heartbeat CPU  0 instructions:  113000002 cycles:   76360036 heartbeat IPC: 1.17809 cumulative IPC: 1.17934 (Simulation time: 0 hr 5 min 11 sec) 
Heartbeat CPU  0 instructions:  114000000 cycles:   77210873 heartbeat IPC: 1.17531 cumulative IPC: 1.17905 (Simulation time: 0 hr 5 min 14 sec) 
Heartbeat CPU  0 instructions:  115000001 cycles:   78060641 heartbeat IPC: 1.17679 cumulative IPC: 1.17890 (Simulation time: 0 hr 5 min 17 sec) 
Heartbeat CPU  0 instructions:  116000000 cycles:   78908562 heartbeat IPC: 1.17935 cumulative IPC: 1.17893 (Simulation time: 0 hr 5 min 21 sec) 
Heartbeat CPU  0 instructions:  117000001 cycles:   79761020 heartbeat IPC: 1.17308 cumulative IPC: 1.17858 (Simulation time: 0 hr 5 min 24 sec) 
Heartbeat CPU  0 instructions:  118000000 cycles:   80610897 heartbeat IPC: 1.17664 cumulative IPC: 1.17847 (Simulation time: 0 hr 5 min 27 sec) 
Heartbeat CPU  0 instructions:  119000003 cycles:   81456444 heartbeat IPC: 1.18267 cumulative IPC: 1.17869 (Simulation time: 0 hr 5 min 30 sec) 
Heartbeat CPU  0 instructions:  120000000 cycles:   82301394 heartbeat IPC: 1.18350 cumulative IPC: 1.17893 (Simulation time: 0 hr 5 min 33 sec) 
Heartbeat CPU  0 instructions:  121000000 cycles:   83149958 heartbeat IPC: 1.17846 cumulative IPC: 1.17891 (Simulation time: 0 hr 5 min 36 sec) 
Heartbeat CPU  0 instructions:  122000003 cycles:   83997359 heartbeat IPC: 1.18008 cumulative IPC: 1.17896 (Simulation time: 0 hr 5 min 39 sec) 
Heartbeat CPU  0 instructions:  123000000 cycles:   84846485 heartbeat IPC: 1.17768 cumulative IPC: 1.17891 (Simulation time: 0 hr 5 min 42 sec) 
Heartbeat CPU  0 instructions:  124000000 cycles:   85697375 heartbeat IPC: 1.17524 cumulative IPC: 1.17875 (Simulation time: 0 hr 5 min 45 sec) 
Heartbeat CPU  0 instructions:  125000000 cycles:   86550164 heartbeat IPC: 1.17262 cumulative IPC: 1.17851 (Simulation time: 0 hr 5 min 48 sec) 
Heartbeat CPU  0 instructions:  126000003 cycles:   87396109 heartbeat IPC: 1.18211 cumulative IPC: 1.17865 (Simulation time: 0 hr 5 min 52 sec) 
Heartbeat CPU  0 instructions:  127000001 cycles:   88244319 heartbeat IPC: 1.17895 cumulative IPC: 1.17866 (Simulation time: 0 hr 5 min 55 sec) 
Heartbeat CPU  0 instructions:  128000000 cycles:   89093982 heartbeat IPC: 1.17694 cumulative IPC: 1.17860 (Simulation time: 0 hr 5 min 58 sec) 
Heartbeat CPU  0 instructions:  129000002 cycles:   89943103 heartbeat IPC: 1.17769 cumulative IPC: 1.17857 (Simulation time: 0 hr 6 min 1 sec) 
Heartbeat CPU  0 instructions:  130000000 cycles:   90790754 heartbeat IPC: 1.17973 cumulative IPC: 1.17860 (Simulation time: 0 hr 6 min 4 sec) 
Heartbeat CPU  0 instructions:  131000002 cycles:   91633869 heartbeat IPC: 1.18608 cumulative IPC: 1.17884 (Simulation time: 0 hr 6 min 7 sec) 
Heartbeat CPU  0 instructions:  132000000 cycles:   92481022 heartbeat IPC: 1.18042 cumulative IPC: 1.17889 (Simulation time: 0 hr 6 min 10 sec) 
Heartbeat CPU  0 instructions:  133000002 cycles:   93329195 heartbeat IPC: 1.17901 cumulative IPC: 1.17890 (Simulation time: 0 hr 6 min 13 sec) 
Heartbeat CPU  0 instructions:  134000003 cycles:   94177350 heartbeat IPC: 1.17903 cumulative IPC: 1.17890 (Simulation time: 0 hr 6 min 16 sec) 
Heartbeat CPU  0 instructions:  135000003 cycles:   95024111 heartbeat IPC: 1.18097 cumulative IPC: 1.17896 (Simulation time: 0 hr 6 min 19 sec) 
Heartbeat CPU  0 instructions:  136000000 cycles:   95873527 heartbeat IPC: 1.17728 cumulative IPC: 1.17891 (Simulation time: 0 hr 6 min 23 sec) 
Heartbeat CPU  0 instructions:  137000002 cycles:   96723015 heartbeat IPC: 1.17718 cumulative IPC: 1.17887 (Simulation time: 0 hr 6 min 26 sec) 
Heartbeat CPU  0 instructions:  138000002 cycles:   97574340 heartbeat IPC: 1.17464 cumulative IPC: 1.17875 (Simulation time: 0 hr 6 min 29 sec) 
Heartbeat CPU  0 instructions:  139000000 cycles:   98426512 heartbeat IPC: 1.17347 cumulative IPC: 1.17862 (Simulation time: 0 hr 6 min 32 sec) 
Heartbeat CPU  0 instructions:  140000000 cycles:   99274428 heartbeat IPC: 1.17936 cumulative IPC: 1.17864 (Simulation time: 0 hr 6 min 35 sec) 
Heartbeat CPU  0 instructions:  141000001 cycles:  100121707 heartbeat IPC: 1.18025 cumulative IPC: 1.17868 (Simulation time: 0 hr 6 min 38 sec) 
Heartbeat CPU  0 instructions:  142000000 cycles:  100966453 heartbeat IPC: 1.18379 cumulative IPC: 1.17880 (Simulation time: 0 hr 6 min 41 sec) 
Heartbeat CPU  0 instructions:  143000002 cycles:  101811895 heartbeat IPC: 1.18282 cumulative IPC: 1.17889 (Simulation time: 0 hr 6 min 44 sec) 
Heartbeat CPU  0 instructions:  144000000 cycles:  102657130 heartbeat IPC: 1.18310 cumulative IPC: 1.17899 (Simulation time: 0 hr 6 min 47 sec) 
Heartbeat CPU  0 instructions:  145000001 cycles:  103509987 heartbeat IPC: 1.17253 cumulative IPC: 1.17884 (Simulation time: 0 hr 6 min 50 sec) 
Heartbeat CPU  0 instructions:  146000002 cycles:  104358127 heartbeat IPC: 1.17905 cumulative IPC: 1.17885 (Simulation time: 0 hr 6 min 53 sec) 
Heartbeat CPU  0 instructions:  147000002 cycles:  105207120 heartbeat IPC: 1.17787 cumulative IPC: 1.17882 (Simulation time: 0 hr 6 min 57 sec) 
Heartbeat CPU  0 instructions:  148000000 cycles:  106056047 heartbeat IPC: 1.17796 cumulative IPC: 1.17881 (Simulation time: 0 hr 7 min 0 sec) 
Heartbeat CPU  0 instructions:  149000002 cycles:  106905947 heartbeat IPC: 1.17661 cumulative IPC: 1.17876 (Simulation time: 0 hr 7 min 3 sec) 
Heartbeat CPU  0 instructions:  150000002 cycles:  107755342 heartbeat IPC: 1.17731 cumulative IPC: 1.17873 (Simulation time: 0 hr 7 min 6 sec) 
Heartbeat CPU  0 instructions:  151000002 cycles:  108606172 heartbeat IPC: 1.17532 cumulative IPC: 1.17867 (Simulation time: 0 hr 7 min 9 sec) 
Heartbeat CPU  0 instructions:  152000000 cycles:  109451117 heartbeat IPC: 1.18351 cumulative IPC: 1.17876 (Simulation time: 0 hr 7 min 12 sec) 
Heartbeat CPU  0 instructions:  153000003 cycles:  110300584 heartbeat IPC: 1.17721 cumulative IPC: 1.17873 (Simulation time: 0 hr 7 min 15 sec) 
Heartbeat CPU  0 instructions:  154000001 cycles:  111144561 heartbeat IPC: 1.18486 cumulative IPC: 1.17884 (Simulation time: 0 hr 7 min 18 sec) 
Heartbeat CPU  0 instructions:  155000003 cycles:  111995373 heartbeat IPC: 1.17535 cumulative IPC: 1.17878 (Simulation time: 0 hr 7 min 21 sec) 
Heartbeat CPU  0 instructions:  156000000 cycles:  112840951 heartbeat IPC: 1.18262 cumulative IPC: 1.17885 (Simulation time: 0 hr 7 min 24 sec) 
Heartbeat CPU  0 instructions:  157000001 cycles:  113688649 heartbeat IPC: 1.17967 cumulative IPC: 1.17886 (Simulation time: 0 hr 7 min 28 sec) 
Heartbeat CPU  0 instructions:  158000002 cycles:  114540214 heartbeat IPC: 1.17431 cumulative IPC: 1.17878 (Simulation time: 0 hr 7 min 31 sec) 
Heartbeat CPU  0 instructions:  159000001 cycles:  115390491 heartbeat IPC: 1.17609 cumulative IPC: 1.17874 (Simulation time: 0 hr 7 min 34 sec) 
Heartbeat CPU  0 instructions:  160000000 cycles:  116240253 heartbeat IPC: 1.17680 cumulative IPC: 1.17870 (Simulation time: 0 hr 7 min 37 sec) 
Heartbeat CPU  0 instructions:  161000000 cycles:  117089161 heartbeat IPC: 1.17798 cumulative IPC: 1.17869 (Simulation time: 0 hr 7 min 40 sec) 
Heartbeat CPU  0 instructions:  162000000 cycles:  117936304 heartbeat IPC: 1.18044 cumulative IPC: 1.17872 (Simulation time: 0 hr 7 min 43 sec) 
Heartbeat CPU  0 instructions:  163000002 cycles:  118786897 heartbeat IPC: 1.17565 cumulative IPC: 1.17867 (Simulation time: 0 hr 7 min 46 sec) 
Heartbeat CPU  0 instructions:  164000000 cycles:  119636691 heartbeat IPC: 1.17675 cumulative IPC: 1.17864 (Simulation time: 0 hr 7 min 49 sec) 
Heartbeat CPU  0 instructions:  165000000 cycles:  120479829 heartbeat IPC: 1.18605 cumulative IPC: 1.17876 (Simulation time: 0 hr 7 min 52 sec) 
Heartbeat CPU  0 instructions:  166000001 cycles:  121327506 heartbeat IPC: 1.17970 cumulative IPC: 1.17877 (Simulation time: 0 hr 7 min 55 sec) 
Heartbeat CPU  0 instructions:  167000001 cycles:  122177780 heartbeat IPC: 1.17609 cumulative IPC: 1.17873 (Simulation time: 0 hr 7 min 59 sec) 
Heartbeat CPU  0 instructions:  168000000 cycles:  123027795 heartbeat IPC: 1.17645 cumulative IPC: 1.17870 (Simulation time: 0 hr 8 min 2 sec) 
Heartbeat CPU  0 instructions:  169000002 cycles:  123876507 heartbeat IPC: 1.17826 cumulative IPC: 1.17869 (Simulation time: 0 hr 8 min 5 sec) 
Heartbeat CPU  0 instructions:  170000000 cycles:  124728387 heartbeat IPC: 1.17387 cumulative IPC: 1.17862 (Simulation time: 0 hr 8 min 8 sec) 
Heartbeat CPU  0 instructions:  171000000 cycles:  125576744 heartbeat IPC: 1.17875 cumulative IPC: 1.17862 (Simulation time: 0 hr 8 min 11 sec) 
Heartbeat CPU  0 instructions:  172000000 cycles:  126427363 heartbeat IPC: 1.17561 cumulative IPC: 1.17858 (Simulation time: 0 hr 8 min 14 sec) 
Heartbeat CPU  0 instructions:  173000000 cycles:  127275218 heartbeat IPC: 1.17945 cumulative IPC: 1.17859 (Simulation time: 0 hr 8 min 17 sec) 
Heartbeat CPU  0 instructions:  174000003 cycles:  128121665 heartbeat IPC: 1.18141 cumulative IPC: 1.17863 (Simulation time: 0 hr 8 min 20 sec) 
Heartbeat CPU  0 instructions:  175000002 cycles:  128972579 heartbeat IPC: 1.17521 cumulative IPC: 1.17858 (Simulation time: 0 hr 8 min 23 sec) 
Heartbeat CPU  0 instructions:  176000000 cycles:  129821905 heartbeat IPC: 1.17740 cumulative IPC: 1.17857 (Simulation time: 0 hr 8 min 26 sec) 
Heartbeat CPU  0 instructions:  177000003 cycles:  130664079 heartbeat IPC: 1.18741 cumulative IPC: 1.17868 (Simulation time: 0 hr 8 min 30 sec) 
Heartbeat CPU  0 instructions:  178000000 cycles:  131515812 heartbeat IPC: 1.17407 cumulative IPC: 1.17862 (Simulation time: 0 hr 8 min 33 sec) 
Heartbeat CPU  0 instructions:  179000001 cycles:  132364957 heartbeat IPC: 1.17766 cumulative IPC: 1.17861 (Simulation time: 0 hr 8 min 36 sec) 
Heartbeat CPU  0 instructions:  180000000 cycles:  133216526 heartbeat IPC: 1.17430 cumulative IPC: 1.17856 (Simulation time: 0 hr 8 min 39 sec) 
Heartbeat CPU  0 instructions:  181000002 cycles:  134066845 heartbeat IPC: 1.17603 cumulative IPC: 1.17853 (Simulation time: 0 hr 8 min 42 sec) 
Heartbeat CPU  0 instructions:  182000001 cycles:  134914224 heartbeat IPC: 1.18011 cumulative IPC: 1.17854 (Simulation time: 0 hr 8 min 45 sec) 
Heartbeat CPU  0 instructions:  183000003 cycles:  135764699 heartbeat IPC: 1.17582 cumulative IPC: 1.17851 (Simulation time: 0 hr 8 min 48 sec) 
Heartbeat CPU  0 instructions:  184000000 cycles:  136617594 heartbeat IPC: 1.17247 cumulative IPC: 1.17844 (Simulation time: 0 hr 8 min 51 sec) 
Heartbeat CPU  0 instructions:  185000003 cycles:  137466865 heartbeat IPC: 1.17748 cumulative IPC: 1.17843 (Simulation time: 0 hr 8 min 54 sec) 
Heartbeat CPU  0 instructions:  186000003 cycles:  138312914 heartbeat IPC: 1.18196 cumulative IPC: 1.17847 (Simulation time: 0 hr 8 min 57 sec) 
Heartbeat CPU  0 instructions:  187000002 cycles:  139160730 heartbeat IPC: 1.17950 cumulative IPC: 1.17848 (Simulation time: 0 hr 9 min 1 sec) 
Heartbeat CPU  0 instructions:  188000000 cycles:  140007404 heartbeat IPC: 1.18109 cumulative IPC: 1.17851 (Simulation time: 0 hr 9 min 4 sec) 
Heartbeat CPU  0 instructions:  189000000 cycles:  140854614 heartbeat IPC: 1.18034 cumulative IPC: 1.17853 (Simulation time: 0 hr 9 min 7 sec) 
Heartbeat CPU  0 instructions:  190000003 cycles:  141701952 heartbeat IPC: 1.18017 cumulative IPC: 1.17855 (Simulation time: 0 hr 9 min 10 sec) 
Heartbeat CPU  0 instructions:  191000000 cycles:  142548111 heartbeat IPC: 1.18181 cumulative IPC: 1.17859 (Simulation time: 0 hr 9 min 13 sec) 
Heartbeat CPU  0 instructions:  192000000 cycles:  143396790 heartbeat IPC: 1.17830 cumulative IPC: 1.17858 (Simulation time: 0 hr 9 min 16 sec) 
Heartbeat CPU  0 instructions:  193000002 cycles:  144249217 heartbeat IPC: 1.17312 cumulative IPC: 1.17852 (Simulation time: 0 hr 9 min 19 sec) 
Heartbeat CPU  0 instructions:  194000000 cycles:  145097275 heartbeat IPC: 1.17916 cumulative IPC: 1.17853 (Simulation time: 0 hr 9 min 22 sec) 
Heartbeat CPU  0 instructions:  195000003 cycles:  145944864 heartbeat IPC: 1.17982 cumulative IPC: 1.17854 (Simulation time: 0 hr 9 min 25 sec) 
Heartbeat CPU  0 instructions:  196000000 cycles:  146795433 heartbeat IPC: 1.17568 cumulative IPC: 1.17851 (Simulation time: 0 hr 9 min 28 sec) 
Heartbeat CPU  0 instructions:  197000000 cycles:  147643765 heartbeat IPC: 1.17878 cumulative IPC: 1.17852 (Simulation time: 0 hr 9 min 32 sec) 
Heartbeat CPU  0 instructions:  198000001 cycles:  148491664 heartbeat IPC: 1.17939 cumulative IPC: 1.17853 (Simulation time: 0 hr 9 min 35 sec) 
Heartbeat CPU  0 instructions:  199000003 cycles:  149337140 heartbeat IPC: 1.18277 cumulative IPC: 1.17857 (Simulation time: 0 hr 9 min 38 sec) 
Heartbeat CPU  0 instructions:  200000000 cycles:  150180857 heartbeat IPC: 1.18523 cumulative IPC: 1.17863 (Simulation time: 0 hr 9 min 41 sec) 
Heartbeat CPU  0 instructions:  201000002 cycles:  151030370 heartbeat IPC: 1.17715 cumulative IPC: 1.17862 (Simulation time: 0 hr 9 min 44 sec) 
Heartbeat CPU  0 instructions:  202000002 cycles:  151878396 heartbeat IPC: 1.17921 cumulative IPC: 1.17863 (Simulation time: 0 hr 9 min 47 sec) 
Heartbeat CPU  0 instructions:  203000003 cycles:  152724720 heartbeat IPC: 1.18158 cumulative IPC: 1.17865 (Simulation time: 0 hr 9 min 50 sec) 
Heartbeat CPU  0 instructions:  204000000 cycles:  153574211 heartbeat IPC: 1.17717 cumulative IPC: 1.17864 (Simulation time: 0 hr 9 min 53 sec) 
Heartbeat CPU  0 instructions:  205000002 cycles:  154424153 heartbeat IPC: 1.17655 cumulative IPC: 1.17862 (Simulation time: 0 hr 9 min 56 sec) 
Heartbeat CPU  0 instructions:  206000003 cycles:  155274556 heartbeat IPC: 1.17591 cumulative IPC: 1.17859 (Simulation time: 0 hr 9 min 59 sec) 
Heartbeat CPU  0 instructions:  207000001 cycles:  156116530 heartbeat IPC: 1.18768 cumulative IPC: 1.17868 (Simulation time: 0 hr 10 min 2 sec) 
Heartbeat CPU  0 instructions:  208000000 cycles:  156967667 heartbeat IPC: 1.17490 cumulative IPC: 1.17864 (Simulation time: 0 hr 10 min 5 sec) 
Heartbeat CPU  0 instructions:  209000001 cycles:  157814169 heartbeat IPC: 1.18133 cumulative IPC: 1.17867 (Simulation time: 0 hr 10 min 9 sec) 
Heartbeat CPU  0 instructions:  210000000 cycles:  158663722 heartbeat IPC: 1.17709 cumulative IPC: 1.17865 (Simulation time: 0 hr 10 min 12 sec) 
Heartbeat CPU  0 instructions:  211000002 cycles:  159509008 heartbeat IPC: 1.18303 cumulative IPC: 1.17869 (Simulation time: 0 hr 10 min 15 sec) 
Heartbeat CPU  0 instructions:  212000000 cycles:  160356464 heartbeat IPC: 1.18000 cumulative IPC: 1.17870 (Simulation time: 0 hr 10 min 18 sec) 
Heartbeat CPU  0 instructions:  213000000 cycles:  161205164 heartbeat IPC: 1.17827 cumulative IPC: 1.17870 (Simulation time: 0 hr 10 min 21 sec) 
Heartbeat CPU  0 instructions:  214000003 cycles:  162052444 heartbeat IPC: 1.18025 cumulative IPC: 1.17871 (Simulation time: 0 hr 10 min 24 sec) 
Heartbeat CPU  0 instructions:  215000001 cycles:  162900975 heartbeat IPC: 1.17850 cumulative IPC: 1.17871 (Simulation time: 0 hr 10 min 27 sec) 
Heartbeat CPU  0 instructions:  216000000 cycles:  163750466 heartbeat IPC: 1.17717 cumulative IPC: 1.17870 (Simulation time: 0 hr 10 min 30 sec) 
Heartbeat CPU  0 instructions:  217000003 cycles:  164599805 heartbeat IPC: 1.17739 cumulative IPC: 1.17869 (Simulation time: 0 hr 10 min 33 sec) 
Heartbeat CPU  0 instructions:  218000001 cycles:  165449993 heartbeat IPC: 1.17621 cumulative IPC: 1.17867 (Simulation time: 0 hr 10 min 36 sec) 
Heartbeat CPU  0 instructions:  219000000 cycles:  166297227 heartbeat IPC: 1.18031 cumulative IPC: 1.17868 (Simulation time: 0 hr 10 min 39 sec) 
Heartbeat CPU  0 instructions:  220000000 cycles:  167144174 heartbeat IPC: 1.18071 cumulative IPC: 1.17870 (Simulation time: 0 hr 10 min 42 sec) 
Heartbeat CPU  0 instructions:  221000000 cycles:  167993904 heartbeat IPC: 1.17684 cumulative IPC: 1.17868 (Simulation time: 0 hr 10 min 46 sec) 
Heartbeat CPU  0 instructions:  222000001 cycles:  168840605 heartbeat IPC: 1.18106 cumulative IPC: 1.17870 (Simulation time: 0 hr 10 min 49 sec) 
Heartbeat CPU  0 instructions:  223000003 cycles:  169690819 heartbeat IPC: 1.17618 cumulative IPC: 1.17868 (Simulation time: 0 hr 10 min 52 sec) 
Heartbeat CPU  0 instructions:  224000000 cycles:  170535362 heartbeat IPC: 1.18407 cumulative IPC: 1.17872 (Simulation time: 0 hr 10 min 55 sec) 
Heartbeat CPU  0 instructions:  225000001 cycles:  171382108 heartbeat IPC: 1.18099 cumulative IPC: 1.17874 (Simulation time: 0 hr 10 min 58 sec) 
Heartbeat CPU  0 instructions:  226000002 cycles:  172229205 heartbeat IPC: 1.18050 cumulative IPC: 1.17876 (Simulation time: 0 hr 11 min 1 sec) 
Heartbeat CPU  0 instructions:  227000002 cycles:  173078848 heartbeat IPC: 1.17696 cumulative IPC: 1.17874 (Simulation time: 0 hr 11 min 4 sec) 
Heartbeat CPU  0 instructions:  228000000 cycles:  173926989 heartbeat IPC: 1.17905 cumulative IPC: 1.17874 (Simulation time: 0 hr 11 min 7 sec) 
Heartbeat CPU  0 instructions:  229000000 cycles:  174778343 heartbeat IPC: 1.17460 cumulative IPC: 1.17871 (Simulation time: 0 hr 11 min 10 sec) 
Heartbeat CPU  0 instructions:  230000001 cycles:  175623924 heartbeat IPC: 1.18262 cumulative IPC: 1.17874 (Simulation time: 0 hr 11 min 13 sec) 
Heartbeat CPU  0 instructions:  231000001 cycles:  176473202 heartbeat IPC: 1.17747 cumulative IPC: 1.17873 (Simulation time: 0 hr 11 min 16 sec) 
Heartbeat CPU  0 instructions:  232000000 cycles:  177319136 heartbeat IPC: 1.18212 cumulative IPC: 1.17876 (Simulation time: 0 hr 11 min 20 sec) 
Heartbeat CPU  0 instructions:  233000002 cycles:  178167070 heartbeat IPC: 1.17934 cumulative IPC: 1.17876 (Simulation time: 0 hr 11 min 23 sec) 
Heartbeat CPU  0 instructions:  234000001 cycles:  179014313 heartbeat IPC: 1.18030 cumulative IPC: 1.17877 (Simulation time: 0 hr 11 min 26 sec) 
Heartbeat CPU  0 instructions:  235000000 cycles:  179862099 heartbeat IPC: 1.17954 cumulative IPC: 1.17878 (Simulation time: 0 hr 11 min 29 sec) 
Heartbeat CPU  0 instructions:  236000000 cycles:  180708948 heartbeat IPC: 1.18085 cumulative IPC: 1.17880 (Simulation time: 0 hr 11 min 32 sec) 
Heartbeat CPU  0 instructions:  237000001 cycles:  181557612 heartbeat IPC: 1.17832 cumulative IPC: 1.17879 (Simulation time: 0 hr 11 min 35 sec) 
Heartbeat CPU  0 instructions:  238000003 cycles:  182404229 heartbeat IPC: 1.18117 cumulative IPC: 1.17881 (Simulation time: 0 hr 11 min 38 sec) 
Heartbeat CPU  0 instructions:  239000001 cycles:  183253960 heartbeat IPC: 1.17684 cumulative IPC: 1.17879 (Simulation time: 0 hr 11 min 41 sec) 
Heartbeat CPU  0 instructions:  240000000 cycles:  184102897 heartbeat IPC: 1.17794 cumulative IPC: 1.17879 (Simulation time: 0 hr 11 min 44 sec) 
Heartbeat CPU  0 instructions:  241000000 cycles:  184950341 heartbeat IPC: 1.18002 cumulative IPC: 1.17880 (Simulation time: 0 hr 11 min 47 sec) 
Heartbeat CPU  0 instructions:  242000000 cycles:  185801290 heartbeat IPC: 1.17516 cumulative IPC: 1.17877 (Simulation time: 0 hr 11 min 50 sec) 
Heartbeat CPU  0 instructions:  243000003 cycles:  186647398 heartbeat IPC: 1.18189 cumulative IPC: 1.17879 (Simulation time: 0 hr 11 min 54 sec) 
Heartbeat CPU  0 instructions:  244000000 cycles:  187493333 heartbeat IPC: 1.18212 cumulative IPC: 1.17882 (Simulation time: 0 hr 11 min 57 sec) 
Heartbeat CPU  0 instructions:  245000000 cycles:  188340162 heartbeat IPC: 1.18088 cumulative IPC: 1.17883 (Simulation time: 0 hr 12 min 0 sec) 
Heartbeat CPU  0 instructions:  246000001 cycles:  189188755 heartbeat IPC: 1.17842 cumulative IPC: 1.17883 (Simulation time: 0 hr 12 min 3 sec) 
Heartbeat CPU  0 instructions:  247000000 cycles:  190035204 heartbeat IPC: 1.18140 cumulative IPC: 1.17885 (Simulation time: 0 hr 12 min 6 sec) 
Heartbeat CPU  0 instructions:  248000000 cycles:  190880656 heartbeat IPC: 1.18280 cumulative IPC: 1.17887 (Simulation time: 0 hr 12 min 9 sec) 
Heartbeat CPU  0 instructions:  249000000 cycles:  191727709 heartbeat IPC: 1.18056 cumulative IPC: 1.17888 (Simulation time: 0 hr 12 min 12 sec) 
Heartbeat CPU  0 instructions:  250000003 cycles:  192577990 heartbeat IPC: 1.17609 cumulative IPC: 1.17886 (Simulation time: 0 hr 12 min 15 sec) 
Heartbeat CPU  0 instructions:  251000001 cycles:  193425913 heartbeat IPC: 1.17935 cumulative IPC: 1.17887 (Simulation time: 0 hr 12 min 18 sec) 
Heartbeat CPU  0 instructions:  252000000 cycles:  194273332 heartbeat IPC: 1.18005 cumulative IPC: 1.17888 (Simulation time: 0 hr 12 min 21 sec) 
Heartbeat CPU  0 instructions:  253000001 cycles:  195120398 heartbeat IPC: 1.18055 cumulative IPC: 1.17889 (Simulation time: 0 hr 12 min 25 sec) 
Heartbeat CPU  0 instructions:  254000003 cycles:  195969394 heartbeat IPC: 1.17786 cumulative IPC: 1.17888 (Simulation time: 0 hr 12 min 28 sec) 
Heartbeat CPU  0 instructions:  255000002 cycles:  196814534 heartbeat IPC: 1.18323 cumulative IPC: 1.17891 (Simulation time: 0 hr 12 min 31 sec) 
Heartbeat CPU  0 instructions:  256000000 cycles:  197660712 heartbeat IPC: 1.18178 cumulative IPC: 1.17893 (Simulation time: 0 hr 12 min 34 sec) 
Heartbeat CPU  0 instructions:  257000002 cycles:  198506281 heartbeat IPC: 1.18264 cumulative IPC: 1.17895 (Simulation time: 0 hr 12 min 37 sec) 
Heartbeat CPU  0 instructions:  258000002 cycles:  199351627 heartbeat IPC: 1.18295 cumulative IPC: 1.17897 (Simulation time: 0 hr 12 min 40 sec) 
Heartbeat CPU  0 instructions:  259000001 cycles:  200199869 heartbeat IPC: 1.17891 cumulative IPC: 1.17897 (Simulation time: 0 hr 12 min 43 sec) 
Heartbeat CPU  0 instructions:  260000000 cycles:  201048983 heartbeat IPC: 1.17770 cumulative IPC: 1.17897 (Simulation time: 0 hr 12 min 46 sec) 
Heartbeat CPU  0 instructions:  261000003 cycles:  201892479 heartbeat IPC: 1.18555 cumulative IPC: 1.17901 (Simulation time: 0 hr 12 min 49 sec) 
Heartbeat CPU  0 instructions:  262000003 cycles:  202742379 heartbeat IPC: 1.17661 cumulative IPC: 1.17899 (Simulation time: 0 hr 12 min 52 sec) 
Heartbeat CPU  0 instructions:  263000000 cycles:  203590045 heartbeat IPC: 1.17971 cumulative IPC: 1.17900 (Simulation time: 0 hr 12 min 56 sec) 
Heartbeat CPU  0 instructions:  264000000 cycles:  204438902 heartbeat IPC: 1.17805 cumulative IPC: 1.17899 (Simulation time: 0 hr 12 min 59 sec) 
Heartbeat CPU  0 instructions:  265000000 cycles:  205284053 heartbeat IPC: 1.18322 cumulative IPC: 1.17902 (Simulation time: 0 hr 13 min 2 sec) 
Heartbeat CPU  0 instructions:  266000003 cycles:  206135318 heartbeat IPC: 1.17473 cumulative IPC: 1.17899 (Simulation time: 0 hr 13 min 5 sec) 
Heartbeat CPU  0 instructions:  267000001 cycles:  206982216 heartbeat IPC: 1.18078 cumulative IPC: 1.17900 (Simulation time: 0 hr 13 min 8 sec) 
Heartbeat CPU  0 instructions:  268000000 cycles:  207829168 heartbeat IPC: 1.18070 cumulative IPC: 1.17901 (Simulation time: 0 hr 13 min 11 sec) 
Heartbeat CPU  0 instructions:  269000003 cycles:  208674610 heartbeat IPC: 1.18282 cumulative IPC: 1.17903 (Simulation time: 0 hr 13 min 14 sec) 
Heartbeat CPU  0 instructions:  270000003 cycles:  209519847 heartbeat IPC: 1.18310 cumulative IPC: 1.17906 (Simulation time: 0 hr 13 min 17 sec) 
Heartbeat CPU  0 instructions:  271000002 cycles:  210366177 heartbeat IPC: 1.18157 cumulative IPC: 1.17907 (Simulation time: 0 hr 13 min 20 sec) 
Heartbeat CPU  0 instructions:  272000000 cycles:  211220153 heartbeat IPC: 1.17099 cumulative IPC: 1.17903 (Simulation time: 0 hr 13 min 23 sec) 
Heartbeat CPU  0 instructions:  273000001 cycles:  212064293 heartbeat IPC: 1.18464 cumulative IPC: 1.17906 (Simulation time: 0 hr 13 min 26 sec) 
Heartbeat CPU  0 instructions:  274000000 cycles:  212910687 heartbeat IPC: 1.18148 cumulative IPC: 1.17907 (Simulation time: 0 hr 13 min 30 sec) 
Heartbeat CPU  0 instructions:  275000003 cycles:  213756940 heartbeat IPC: 1.18168 cumulative IPC: 1.17909 (Simulation time: 0 hr 13 min 33 sec) 
Heartbeat CPU  0 instructions:  276000000 cycles:  214607584 heartbeat IPC: 1.17558 cumulative IPC: 1.17907 (Simulation time: 0 hr 13 min 36 sec) 
Heartbeat CPU  0 instructions:  277000001 cycles:  215457287 heartbeat IPC: 1.17688 cumulative IPC: 1.17905 (Simulation time: 0 hr 13 min 39 sec) 
Heartbeat CPU  0 instructions:  278000002 cycles:  216304934 heartbeat IPC: 1.17974 cumulative IPC: 1.17906 (Simulation time: 0 hr 13 min 42 sec) 
Heartbeat CPU  0 instructions:  279000000 cycles:  217150180 heartbeat IPC: 1.18309 cumulative IPC: 1.17908 (Simulation time: 0 hr 13 min 45 sec) 
Heartbeat CPU  0 instructions:  280000000 cycles:  217997087 heartbeat IPC: 1.18077 cumulative IPC: 1.17909 (Simulation time: 0 hr 13 min 48 sec) 
Heartbeat CPU  0 instructions:  281000001 cycles:  218840294 heartbeat IPC: 1.18595 cumulative IPC: 1.17913 (Simulation time: 0 hr 13 min 51 sec) 
Heartbeat CPU  0 instructions:  282000002 cycles:  219685332 heartbeat IPC: 1.18338 cumulative IPC: 1.17915 (Simulation time: 0 hr 13 min 54 sec) 
Heartbeat CPU  0 instructions:  283000000 cycles:  220533506 heartbeat IPC: 1.17900 cumulative IPC: 1.17915 (Simulation time: 0 hr 13 min 58 sec) 
Heartbeat CPU  0 instructions:  284000000 cycles:  221382663 heartbeat IPC: 1.17764 cumulative IPC: 1.17914 (Simulation time: 0 hr 14 min 1 sec) 
Heartbeat CPU  0 instructions:  285000002 cycles:  222230617 heartbeat IPC: 1.17931 cumulative IPC: 1.17914 (Simulation time: 0 hr 14 min 4 sec) 
Heartbeat CPU  0 instructions:  286000000 cycles:  223076919 heartbeat IPC: 1.18161 cumulative IPC: 1.17916 (Simulation time: 0 hr 14 min 7 sec) 
Heartbeat CPU  0 instructions:  287000001 cycles:  223926543 heartbeat IPC: 1.17699 cumulative IPC: 1.17914 (Simulation time: 0 hr 14 min 10 sec) 
Heartbeat CPU  0 instructions:  288000000 cycles:  224772926 heartbeat IPC: 1.18150 cumulative IPC: 1.17916 (Simulation time: 0 hr 14 min 13 sec) 
Heartbeat CPU  0 instructions:  289000003 cycles:  225623076 heartbeat IPC: 1.17627 cumulative IPC: 1.17914 (Simulation time: 0 hr 14 min 16 sec) 
Heartbeat CPU  0 instructions:  290000003 cycles:  226466158 heartbeat IPC: 1.18612 cumulative IPC: 1.17918 (Simulation time: 0 hr 14 min 19 sec) 
Heartbeat CPU  0 instructions:  291000003 cycles:  227314748 heartbeat IPC: 1.17843 cumulative IPC: 1.17917 (Simulation time: 0 hr 14 min 22 sec) 
Heartbeat CPU  0 instructions:  292000000 cycles:  228160103 heartbeat IPC: 1.18293 cumulative IPC: 1.17919 (Simulation time: 0 hr 14 min 25 sec) 
Heartbeat CPU  0 instructions:  293000000 cycles:  229005829 heartbeat IPC: 1.18242 cumulative IPC: 1.17921 (Simulation time: 0 hr 14 min 29 sec) 
Heartbeat CPU  0 instructions:  294000001 cycles:  229853034 heartbeat IPC: 1.18035 cumulative IPC: 1.17922 (Simulation time: 0 hr 14 min 32 sec) 
Heartbeat CPU  0 instructions:  295000000 cycles:  230702413 heartbeat IPC: 1.17733 cumulative IPC: 1.17921 (Simulation time: 0 hr 14 min 35 sec) 
Heartbeat CPU  0 instructions:  296000000 cycles:  231550931 heartbeat IPC: 1.17853 cumulative IPC: 1.17920 (Simulation time: 0 hr 14 min 38 sec) 
Heartbeat CPU  0 instructions:  297000000 cycles:  232399064 heartbeat IPC: 1.17906 cumulative IPC: 1.17920 (Simulation time: 0 hr 14 min 41 sec) 
Heartbeat CPU  0 instructions:  298000002 cycles:  233244692 heartbeat IPC: 1.18256 cumulative IPC: 1.17922 (Simulation time: 0 hr 14 min 44 sec) 
Heartbeat CPU  0 instructions:  299000000 cycles:  234091078 heartbeat IPC: 1.18149 cumulative IPC: 1.17923 (Simulation time: 0 hr 14 min 47 sec) 
Heartbeat CPU  0 instructions:  300000000 cycles:  234939542 heartbeat IPC: 1.17860 cumulative IPC: 1.17923 (Simulation time: 0 hr 14 min 50 sec) 
Heartbeat CPU  0 instructions:  301000001 cycles:  235787043 heartbeat IPC: 1.17994 cumulative IPC: 1.17923 (Simulation time: 0 hr 14 min 53 sec) 
Heartbeat CPU  0 instructions:  302000000 cycles:  236636163 heartbeat IPC: 1.17769 cumulative IPC: 1.17922 (Simulation time: 0 hr 14 min 56 sec) 
Heartbeat CPU  0 instructions:  303000002 cycles:  237479583 heartbeat IPC: 1.18565 cumulative IPC: 1.17925 (Simulation time: 0 hr 14 min 59 sec) 
Heartbeat CPU  0 instructions:  304000000 cycles:  238322853 heartbeat IPC: 1.18586 cumulative IPC: 1.17929 (Simulation time: 0 hr 15 min 3 sec) 
Heartbeat CPU  0 instructions:  305000002 cycles:  239168397 heartbeat IPC: 1.18267 cumulative IPC: 1.17930 (Simulation time: 0 hr 15 min 6 sec) 
Heartbeat CPU  0 instructions:  306000001 cycles:  240018745 heartbeat IPC: 1.17599 cumulative IPC: 1.17929 (Simulation time: 0 hr 15 min 9 sec) 
Heartbeat CPU  0 instructions:  307000001 cycles:  240867057 heartbeat IPC: 1.17881 cumulative IPC: 1.17928 (Simulation time: 0 hr 15 min 12 sec) 
Heartbeat CPU  0 instructions:  308000000 cycles:  241717078 heartbeat IPC: 1.17644 cumulative IPC: 1.17927 (Simulation time: 0 hr 15 min 15 sec) 
Heartbeat CPU  0 instructions:  309000000 cycles:  242564462 heartbeat IPC: 1.18010 cumulative IPC: 1.17927 (Simulation time: 0 hr 15 min 18 sec) 
Heartbeat CPU  0 instructions:  310000000 cycles:  243412035 heartbeat IPC: 1.17984 cumulative IPC: 1.17928 (Simulation time: 0 hr 15 min 21 sec) 
Heartbeat CPU  0 instructions:  311000000 cycles:  244258181 heartbeat IPC: 1.18183 cumulative IPC: 1.17929 (Simulation time: 0 hr 15 min 24 sec) 
Heartbeat CPU  0 instructions:  312000000 cycles:  245104678 heartbeat IPC: 1.18134 cumulative IPC: 1.17930 (Simulation time: 0 hr 15 min 27 sec) 
Heartbeat CPU  0 instructions:  313000002 cycles:  245952098 heartbeat IPC: 1.18005 cumulative IPC: 1.17930 (Simulation time: 0 hr 15 min 30 sec) 
Heartbeat CPU  0 instructions:  314000001 cycles:  246801026 heartbeat IPC: 1.17796 cumulative IPC: 1.17930 (Simulation time: 0 hr 15 min 34 sec) 
Heartbeat CPU  0 instructions:  315000001 cycles:  247643909 heartbeat IPC: 1.18640 cumulative IPC: 1.17933 (Simulation time: 0 hr 15 min 37 sec) 
Heartbeat CPU  0 instructions:  316000000 cycles:  248489669 heartbeat IPC: 1.18237 cumulative IPC: 1.17934 (Simulation time: 0 hr 15 min 40 sec) 
Heartbeat CPU  0 instructions:  317000000 cycles:  249338209 heartbeat IPC: 1.17849 cumulative IPC: 1.17934 (Simulation time: 0 hr 15 min 43 sec) 
Heartbeat CPU  0 instructions:  318000001 cycles:  250185899 heartbeat IPC: 1.17968 cumulative IPC: 1.17934 (Simulation time: 0 hr 15 min 46 sec) 
Heartbeat CPU  0 instructions:  319000000 cycles:  251517200 heartbeat IPC: 0.75114 cumulative IPC: 1.17628 (Simulation time: 0 hr 15 min 49 sec) 
Heartbeat CPU  0 instructions:  320000000 cycles:  252655068 heartbeat IPC: 0.87884 cumulative IPC: 1.17447 (Simulation time: 0 hr 15 min 51 sec) 
Heartbeat CPU  0 instructions:  321000003 cycles:  253570252 heartbeat IPC: 1.09268 cumulative IPC: 1.17407 (Simulation time: 0 hr 15 min 54 sec) 
Heartbeat CPU  0 instructions:  322000002 cycles:  254484928 heartbeat IPC: 1.09328 cumulative IPC: 1.17368 (Simulation time: 0 hr 15 min 56 sec) 
Heartbeat CPU  0 instructions:  323000000 cycles:  255396816 heartbeat IPC: 1.09662 cumulative IPC: 1.17331 (Simulation time: 0 hr 15 min 58 sec) 
Heartbeat CPU  0 instructions:  324000000 cycles:  256309546 heartbeat IPC: 1.09561 cumulative IPC: 1.17294 (Simulation time: 0 hr 16 min 1 sec) 
Heartbeat CPU  0 instructions:  325000003 cycles:  257223348 heartbeat IPC: 1.09433 cumulative IPC: 1.17257 (Simulation time: 0 hr 16 min 3 sec) 
Heartbeat CPU  0 instructions:  326000003 cycles:  258138485 heartbeat IPC: 1.09273 cumulative IPC: 1.17219 (Simulation time: 0 hr 16 min 5 sec) 
Heartbeat CPU  0 instructions:  327000002 cycles:  259050771 heartbeat IPC: 1.09615 cumulative IPC: 1.17183 (Simulation time: 0 hr 16 min 8 sec) 
Heartbeat CPU  0 instructions:  328000000 cycles:  259962573 heartbeat IPC: 1.09673 cumulative IPC: 1.17148 (Simulation time: 0 hr 16 min 10 sec) 
Heartbeat CPU  0 instructions:  329000002 cycles:  260875722 heartbeat IPC: 1.09511 cumulative IPC: 1.17112 (Simulation time: 0 hr 16 min 12 sec) 
Heartbeat CPU  0 instructions:  330000000 cycles:  261791362 heartbeat IPC: 1.09213 cumulative IPC: 1.17075 (Simulation time: 0 hr 16 min 15 sec) 
Heartbeat CPU  0 instructions:  331000001 cycles:  262705511 heartbeat IPC: 1.09391 cumulative IPC: 1.17040 (Simulation time: 0 hr 16 min 17 sec) 
Heartbeat CPU  0 instructions:  332000000 cycles:  263621368 heartbeat IPC: 1.09187 cumulative IPC: 1.17004 (Simulation time: 0 hr 16 min 19 sec) 
Heartbeat CPU  0 instructions:  333000001 cycles:  264456573 heartbeat IPC: 1.19731 cumulative IPC: 1.17015 (Simulation time: 0 hr 16 min 22 sec) 
Heartbeat CPU  0 instructions:  334000003 cycles:  265216811 heartbeat IPC: 1.31538 cumulative IPC: 1.17070 (Simulation time: 0 hr 16 min 24 sec) 
Heartbeat CPU  0 instructions:  335000001 cycles:  265999374 heartbeat IPC: 1.27785 cumulative IPC: 1.17112 (Simulation time: 0 hr 16 min 26 sec) 
Heartbeat CPU  0 instructions:  336000000 cycles:  266922155 heartbeat IPC: 1.08368 cumulative IPC: 1.17072 (Simulation time: 0 hr 16 min 29 sec) 
Heartbeat CPU  0 instructions:  337000002 cycles:  267976875 heartbeat IPC: 0.94812 cumulative IPC: 1.16956 (Simulation time: 0 hr 16 min 31 sec) 
Heartbeat CPU  0 instructions:  338000000 cycles:  269035560 heartbeat IPC: 0.94457 cumulative IPC: 1.16839 (Simulation time: 0 hr 16 min 34 sec) 
Heartbeat CPU  0 instructions:  339000002 cycles:  270118903 heartbeat IPC: 0.92307 cumulative IPC: 1.16709 (Simulation time: 0 hr 16 min 36 sec) 
Heartbeat CPU  0 instructions:  340000000 cycles:  271178572 heartbeat IPC: 0.94369 cumulative IPC: 1.16594 (Simulation time: 0 hr 16 min 39 sec) 
Heartbeat CPU  0 instructions:  341000001 cycles:  272227926 heartbeat IPC: 0.95297 cumulative IPC: 1.16486 (Simulation time: 0 hr 16 min 41 sec) 
Heartbeat CPU  0 instructions:  342000001 cycles:  273308356 heartbeat IPC: 0.92556 cumulative IPC: 1.16362 (Simulation time: 0 hr 16 min 44 sec) 
Heartbeat CPU  0 instructions:  343000000 cycles:  274368391 heartbeat IPC: 0.94336 cumulative IPC: 1.16250 (Simulation time: 0 hr 16 min 46 sec) 
Heartbeat CPU  0 instructions:  344000000 cycles:  275436885 heartbeat IPC: 0.93590 cumulative IPC: 1.16135 (Simulation time: 0 hr 16 min 49 sec) 
Heartbeat CPU  0 instructions:  345000002 cycles:  276511323 heartbeat IPC: 0.93072 cumulative IPC: 1.16018 (Simulation time: 0 hr 16 min 52 sec) 
Heartbeat CPU  0 instructions:  346000003 cycles:  277591136 heartbeat IPC: 0.92609 cumulative IPC: 1.15899 (Simulation time: 0 hr 16 min 54 sec) 
Heartbeat CPU  0 instructions:  347000001 cycles:  278685817 heartbeat IPC: 0.91351 cumulative IPC: 1.15773 (Simulation time: 0 hr 16 min 57 sec) 
Heartbeat CPU  0 instructions:  348000000 cycles:  279772697 heartbeat IPC: 0.92006 cumulative IPC: 1.15652 (Simulation time: 0 hr 16 min 59 sec) 
Heartbeat CPU  0 instructions:  349000002 cycles:  280865023 heartbeat IPC: 0.91548 cumulative IPC: 1.15530 (Simulation time: 0 hr 17 min 2 sec) 
Heartbeat CPU  0 instructions:  350000000 cycles:  281950287 heartbeat IPC: 0.92143 cumulative IPC: 1.15413 (Simulation time: 0 hr 17 min 4 sec) 
Heartbeat CPU  0 instructions:  351000001 cycles:  282850567 heartbeat IPC: 1.11077 cumulative IPC: 1.15395 (Simulation time: 0 hr 17 min 7 sec) 
Heartbeat CPU  0 instructions:  352000000 cycles:  283697723 heartbeat IPC: 1.18042 cumulative IPC: 1.15405 (Simulation time: 0 hr 17 min 11 sec) 
Heartbeat CPU  0 instructions:  353000002 cycles:  284542695 heartbeat IPC: 1.18347 cumulative IPC: 1.15417 (Simulation time: 0 hr 17 min 14 sec) 
Heartbeat CPU  0 instructions:  354000001 cycles:  285383964 heartbeat IPC: 1.18868 cumulative IPC: 1.15430 (Simulation time: 0 hr 17 min 17 sec) 
Heartbeat CPU  0 instructions:  355000002 cycles:  286231448 heartbeat IPC: 1.17996 cumulative IPC: 1.15440 (Simulation time: 0 hr 17 min 20 sec) 
Heartbeat CPU  0 instructions:  356000000 cycles:  287077216 heartbeat IPC: 1.18235 cumulative IPC: 1.15450 (Simulation time: 0 hr 17 min 23 sec) 
Heartbeat CPU  0 instructions:  357000001 cycles:  287922460 heartbeat IPC: 1.18309 cumulative IPC: 1.15461 (Simulation time: 0 hr 17 min 26 sec) 
Heartbeat CPU  0 instructions:  358000002 cycles:  288768220 heartbeat IPC: 1.18237 cumulative IPC: 1.15472 (Simulation time: 0 hr 17 min 29 sec) 
Heartbeat CPU  0 instructions:  359000003 cycles:  289613859 heartbeat IPC: 1.18254 cumulative IPC: 1.15482 (Simulation time: 0 hr 17 min 32 sec) 
Heartbeat CPU  0 instructions:  360000000 cycles:  290457850 heartbeat IPC: 1.18484 cumulative IPC: 1.15493 (Simulation time: 0 hr 17 min 35 sec) 
Heartbeat CPU  0 instructions:  361000001 cycles:  291302420 heartbeat IPC: 1.18404 cumulative IPC: 1.15504 (Simulation time: 0 hr 17 min 39 sec) 
Heartbeat CPU  0 instructions:  362000000 cycles:  292146527 heartbeat IPC: 1.18468 cumulative IPC: 1.15515 (Simulation time: 0 hr 17 min 42 sec) 
Heartbeat CPU  0 instructions:  363000001 cycles:  292991127 heartbeat IPC: 1.18399 cumulative IPC: 1.15526 (Simulation time: 0 hr 17 min 45 sec) 
Heartbeat CPU  0 instructions:  364000000 cycles:  293839162 heartbeat IPC: 1.17920 cumulative IPC: 1.15535 (Simulation time: 0 hr 17 min 48 sec) 
Heartbeat CPU  0 instructions:  365000000 cycles:  294685898 heartbeat IPC: 1.18101 cumulative IPC: 1.15544 (Simulation time: 0 hr 17 min 51 sec) 
Heartbeat CPU  0 instructions:  366000001 cycles:  295532307 heartbeat IPC: 1.18146 cumulative IPC: 1.15554 (Simulation time: 0 hr 17 min 54 sec) 
Heartbeat CPU  0 instructions:  367000001 cycles:  296378885 heartbeat IPC: 1.18123 cumulative IPC: 1.15563 (Simulation time: 0 hr 17 min 57 sec) 
Heartbeat CPU  0 instructions:  368000000 cycles:  297224516 heartbeat IPC: 1.18255 cumulative IPC: 1.15573 (Simulation time: 0 hr 18 min 0 sec) 
Heartbeat CPU  0 instructions:  369000002 cycles:  298069422 heartbeat IPC: 1.18357 cumulative IPC: 1.15583 (Simulation time: 0 hr 18 min 3 sec) 
Heartbeat CPU  0 instructions:  370000001 cycles:  298915004 heartbeat IPC: 1.18262 cumulative IPC: 1.15593 (Simulation time: 0 hr 18 min 6 sec) 
Heartbeat CPU  0 instructions:  371000001 cycles:  299759582 heartbeat IPC: 1.18402 cumulative IPC: 1.15603 (Simulation time: 0 hr 18 min 10 sec) 
Heartbeat CPU  0 instructions:  372000000 cycles:  300605085 heartbeat IPC: 1.18273 cumulative IPC: 1.15613 (Simulation time: 0 hr 18 min 13 sec) 
Heartbeat CPU  0 instructions:  373000001 cycles:  301451352 heartbeat IPC: 1.18166 cumulative IPC: 1.15622 (Simulation time: 0 hr 18 min 16 sec) 
Heartbeat CPU  0 instructions:  374000003 cycles:  302296292 heartbeat IPC: 1.18352 cumulative IPC: 1.15632 (Simulation time: 0 hr 18 min 19 sec) 
Heartbeat CPU  0 instructions:  375000000 cycles:  303140538 heartbeat IPC: 1.18449 cumulative IPC: 1.15642 (Simulation time: 0 hr 18 min 22 sec) 
Heartbeat CPU  0 instructions:  376000000 cycles:  303987367 heartbeat IPC: 1.18088 cumulative IPC: 1.15650 (Simulation time: 0 hr 18 min 25 sec) 
Heartbeat CPU  0 instructions:  377000001 cycles:  304834992 heartbeat IPC: 1.17977 cumulative IPC: 1.15659 (Simulation time: 0 hr 18 min 28 sec) 
Heartbeat CPU  0 instructions:  378000001 cycles:  305680041 heartbeat IPC: 1.18336 cumulative IPC: 1.15668 (Simulation time: 0 hr 18 min 31 sec) 
Heartbeat CPU  0 instructions:  379000001 cycles:  306525892 heartbeat IPC: 1.18224 cumulative IPC: 1.15677 (Simulation time: 0 hr 18 min 34 sec) 
Heartbeat CPU  0 instructions:  380000000 cycles:  307372249 heartbeat IPC: 1.18153 cumulative IPC: 1.15686 (Simulation time: 0 hr 18 min 37 sec) 
Heartbeat CPU  0 instructions:  381000000 cycles:  308221401 heartbeat IPC: 1.17765 cumulative IPC: 1.15693 (Simulation time: 0 hr 18 min 41 sec) 
Heartbeat CPU  0 instructions:  382000000 cycles:  309067812 heartbeat IPC: 1.18146 cumulative IPC: 1.15701 (Simulation time: 0 hr 18 min 44 sec) 
Heartbeat CPU  0 instructions:  383000000 cycles:  309915469 heartbeat IPC: 1.17972 cumulative IPC: 1.15709 (Simulation time: 0 hr 18 min 47 sec) 
Heartbeat CPU  0 instructions:  384000000 cycles:  310760365 heartbeat IPC: 1.18358 cumulative IPC: 1.15718 (Simulation time: 0 hr 18 min 50 sec) 
Heartbeat CPU  0 instructions:  385000003 cycles:  311605870 heartbeat IPC: 1.18273 cumulative IPC: 1.15727 (Simulation time: 0 hr 18 min 53 sec) 
Heartbeat CPU  0 instructions:  386000000 cycles:  312452821 heartbeat IPC: 1.18070 cumulative IPC: 1.15735 (Simulation time: 0 hr 18 min 56 sec) 
Heartbeat CPU  0 instructions:  387000000 cycles:  313297625 heartbeat IPC: 1.18371 cumulative IPC: 1.15744 (Simulation time: 0 hr 18 min 59 sec) 
Heartbeat CPU  0 instructions:  388000000 cycles:  314142184 heartbeat IPC: 1.18405 cumulative IPC: 1.15753 (Simulation time: 0 hr 19 min 2 sec) 
Heartbeat CPU  0 instructions:  389000003 cycles:  314990528 heartbeat IPC: 1.17877 cumulative IPC: 1.15760 (Simulation time: 0 hr 19 min 5 sec) 
Heartbeat CPU  0 instructions:  390000001 cycles:  315839499 heartbeat IPC: 1.17789 cumulative IPC: 1.15767 (Simulation time: 0 hr 19 min 9 sec) 
Heartbeat CPU  0 instructions:  391000001 cycles:  316683782 heartbeat IPC: 1.18444 cumulative IPC: 1.15776 (Simulation time: 0 hr 19 min 12 sec) 
Heartbeat CPU  0 instructions:  392000000 cycles:  317527684 heartbeat IPC: 1.18497 cumulative IPC: 1.15785 (Simulation time: 0 hr 19 min 15 sec) 
Heartbeat CPU  0 instructions:  393000001 cycles:  318375201 heartbeat IPC: 1.17992 cumulative IPC: 1.15793 (Simulation time: 0 hr 19 min 18 sec) 
Heartbeat CPU  0 instructions:  394000000 cycles:  319222273 heartbeat IPC: 1.18054 cumulative IPC: 1.15800 (Simulation time: 0 hr 19 min 21 sec) 
Heartbeat CPU  0 instructions:  395000000 cycles:  320067977 heartbeat IPC: 1.18245 cumulative IPC: 1.15808 (Simulation time: 0 hr 19 min 24 sec) 
Heartbeat CPU  0 instructions:  396000000 cycles:  320913864 heartbeat IPC: 1.18219 cumulative IPC: 1.15816 (Simulation time: 0 hr 19 min 27 sec) 
Heartbeat CPU  0 instructions:  397000002 cycles:  321758725 heartbeat IPC: 1.18363 cumulative IPC: 1.15825 (Simulation time: 0 hr 19 min 30 sec) 
Heartbeat CPU  0 instructions:  398000000 cycles:  322605806 heartbeat IPC: 1.18052 cumulative IPC: 1.15832 (Simulation time: 0 hr 19 min 33 sec) 
Heartbeat CPU  0 instructions:  399000002 cycles:  323453227 heartbeat IPC: 1.18005 cumulative IPC: 1.15839 (Simulation time: 0 hr 19 min 36 sec) 
Heartbeat CPU  0 instructions:  400000000 cycles:  324298438 heartbeat IPC: 1.18313 cumulative IPC: 1.15847 (Simulation time: 0 hr 19 min 40 sec) 
Heartbeat CPU  0 instructions:  401000001 cycles:  325145707 heartbeat IPC: 1.18026 cumulative IPC: 1.15854 (Simulation time: 0 hr 19 min 43 sec) 
Heartbeat CPU  0 instructions:  402000002 cycles:  325991545 heartbeat IPC: 1.18226 cumulative IPC: 1.15862 (Simulation time: 0 hr 19 min 46 sec) 
Heartbeat CPU  0 instructions:  403000003 cycles:  326839384 heartbeat IPC: 1.17947 cumulative IPC: 1.15869 (Simulation time: 0 hr 19 min 49 sec) 
Heartbeat CPU  0 instructions:  404000000 cycles:  327686328 heartbeat IPC: 1.18071 cumulative IPC: 1.15876 (Simulation time: 0 hr 19 min 52 sec) 
Heartbeat CPU  0 instructions:  405000003 cycles:  328527936 heartbeat IPC: 1.18821 cumulative IPC: 1.15885 (Simulation time: 0 hr 19 min 55 sec) 
Heartbeat CPU  0 instructions:  406000003 cycles:  329374545 heartbeat IPC: 1.18118 cumulative IPC: 1.15893 (Simulation time: 0 hr 19 min 58 sec) 
Heartbeat CPU  0 instructions:  407000002 cycles:  330221777 heartbeat IPC: 1.18031 cumulative IPC: 1.15899 (Simulation time: 0 hr 20 min 1 sec) 
Heartbeat CPU  0 instructions:  408000000 cycles:  331064511 heartbeat IPC: 1.18661 cumulative IPC: 1.15908 (Simulation time: 0 hr 20 min 4 sec) 
Heartbeat CPU  0 instructions:  409000001 cycles:  331911907 heartbeat IPC: 1.18009 cumulative IPC: 1.15915 (Simulation time: 0 hr 20 min 8 sec) 
Heartbeat CPU  0 instructions:  410000003 cycles:  332759065 heartbeat IPC: 1.18042 cumulative IPC: 1.15922 (Simulation time: 0 hr 20 min 11 sec) 
Heartbeat CPU  0 instructions:  411000002 cycles:  333609838 heartbeat IPC: 1.17540 cumulative IPC: 1.15927 (Simulation time: 0 hr 20 min 14 sec) 
Heartbeat CPU  0 instructions:  412000000 cycles:  334458674 heartbeat IPC: 1.17808 cumulative IPC: 1.15933 (Simulation time: 0 hr 20 min 17 sec) 
Heartbeat CPU  0 instructions:  413000000 cycles:  335305328 heartbeat IPC: 1.18112 cumulative IPC: 1.15939 (Simulation time: 0 hr 20 min 20 sec) 
Heartbeat CPU  0 instructions:  414000000 cycles:  336148975 heartbeat IPC: 1.18533 cumulative IPC: 1.15948 (Simulation time: 0 hr 20 min 23 sec) 
Heartbeat CPU  0 instructions:  415000002 cycles:  336993841 heartbeat IPC: 1.18362 cumulative IPC: 1.15955 (Simulation time: 0 hr 20 min 26 sec) 
Heartbeat CPU  0 instructions:  416000000 cycles:  337837952 heartbeat IPC: 1.18468 cumulative IPC: 1.15963 (Simulation time: 0 hr 20 min 29 sec) 
Heartbeat CPU  0 instructions:  417000002 cycles:  338681581 heartbeat IPC: 1.18536 cumulative IPC: 1.15971 (Simulation time: 0 hr 20 min 32 sec) 
Heartbeat CPU  0 instructions:  418000000 cycles:  339528832 heartbeat IPC: 1.18029 cumulative IPC: 1.15977 (Simulation time: 0 hr 20 min 35 sec) 
Heartbeat CPU  0 instructions:  419000001 cycles:  340374466 heartbeat IPC: 1.18255 cumulative IPC: 1.15984 (Simulation time: 0 hr 20 min 39 sec) 
Heartbeat CPU  0 instructions:  420000000 cycles:  341220376 heartbeat IPC: 1.18216 cumulative IPC: 1.15991 (Simulation time: 0 hr 20 min 42 sec) 
Heartbeat CPU  0 instructions:  421000001 cycles:  342065668 heartbeat IPC: 1.18302 cumulative IPC: 1.15998 (Simulation time: 0 hr 20 min 45 sec) 
Heartbeat CPU  0 instructions:  422000003 cycles:  342914437 heartbeat IPC: 1.17818 cumulative IPC: 1.16004 (Simulation time: 0 hr 20 min 48 sec) 
Heartbeat CPU  0 instructions:  423000000 cycles:  343762912 heartbeat IPC: 1.17858 cumulative IPC: 1.16009 (Simulation time: 0 hr 20 min 51 sec) 
Heartbeat CPU  0 instructions:  424000000 cycles:  344608613 heartbeat IPC: 1.18245 cumulative IPC: 1.16016 (Simulation time: 0 hr 20 min 54 sec) 
Heartbeat CPU  0 instructions:  425000000 cycles:  345455602 heartbeat IPC: 1.18065 cumulative IPC: 1.16022 (Simulation time: 0 hr 20 min 57 sec) 
Heartbeat CPU  0 instructions:  426000003 cycles:  346302510 heartbeat IPC: 1.18077 cumulative IPC: 1.16028 (Simulation time: 0 hr 21 min 0 sec) 
Heartbeat CPU  0 instructions:  427000001 cycles:  347146757 heartbeat IPC: 1.18449 cumulative IPC: 1.16036 (Simulation time: 0 hr 21 min 3 sec) 
Heartbeat CPU  0 instructions:  428000000 cycles:  347993949 heartbeat IPC: 1.18037 cumulative IPC: 1.16042 (Simulation time: 0 hr 21 min 6 sec) 
Heartbeat CPU  0 instructions:  429000001 cycles:  348838464 heartbeat IPC: 1.18411 cumulative IPC: 1.16049 (Simulation time: 0 hr 21 min 10 sec) 
Heartbeat CPU  0 instructions:  430000001 cycles:  349687303 heartbeat IPC: 1.17808 cumulative IPC: 1.16054 (Simulation time: 0 hr 21 min 13 sec) 
Heartbeat CPU  0 instructions:  431000002 cycles:  350532053 heartbeat IPC: 1.18378 cumulative IPC: 1.16061 (Simulation time: 0 hr 21 min 16 sec) 
Heartbeat CPU  0 instructions:  432000000 cycles:  351381194 heartbeat IPC: 1.17766 cumulative IPC: 1.16066 (Simulation time: 0 hr 21 min 19 sec) 
Heartbeat CPU  0 instructions:  433000002 cycles:  352225484 heartbeat IPC: 1.18443 cumulative IPC: 1.16073 (Simulation time: 0 hr 21 min 22 sec) 
Heartbeat CPU  0 instructions:  434000001 cycles:  353073417 heartbeat IPC: 1.17934 cumulative IPC: 1.16078 (Simulation time: 0 hr 21 min 25 sec) 
Heartbeat CPU  0 instructions:  435000000 cycles:  353919962 heartbeat IPC: 1.18127 cumulative IPC: 1.16084 (Simulation time: 0 hr 21 min 28 sec) 
Heartbeat CPU  0 instructions:  436000000 cycles:  354767649 heartbeat IPC: 1.17968 cumulative IPC: 1.16090 (Simulation time: 0 hr 21 min 31 sec) 
Heartbeat CPU  0 instructions:  437000001 cycles:  355611192 heartbeat IPC: 1.18548 cumulative IPC: 1.16097 (Simulation time: 0 hr 21 min 34 sec) 
Heartbeat CPU  0 instructions:  438000000 cycles:  356457229 heartbeat IPC: 1.18198 cumulative IPC: 1.16103 (Simulation time: 0 hr 21 min 37 sec) 
Heartbeat CPU  0 instructions:  439000001 cycles:  357300911 heartbeat IPC: 1.18528 cumulative IPC: 1.16110 (Simulation time: 0 hr 21 min 41 sec) 
Heartbeat CPU  0 instructions:  440000000 cycles:  358149771 heartbeat IPC: 1.17805 cumulative IPC: 1.16115 (Simulation time: 0 hr 21 min 44 sec) 
Heartbeat CPU  0 instructions:  441000000 cycles:  358994831 heartbeat IPC: 1.18335 cumulative IPC: 1.16122 (Simulation time: 0 hr 21 min 47 sec) 
Heartbeat CPU  0 instructions:  442000000 cycles:  359842134 heartbeat IPC: 1.18022 cumulative IPC: 1.16127 (Simulation time: 0 hr 21 min 50 sec) 
Heartbeat CPU  0 instructions:  443000001 cycles:  360688738 heartbeat IPC: 1.18119 cumulative IPC: 1.16133 (Simulation time: 0 hr 21 min 53 sec) 
Heartbeat CPU  0 instructions:  444000000 cycles:  361535551 heartbeat IPC: 1.18090 cumulative IPC: 1.16138 (Simulation time: 0 hr 21 min 56 sec) 
Heartbeat CPU  0 instructions:  445000003 cycles:  362384071 heartbeat IPC: 1.17853 cumulative IPC: 1.16143 (Simulation time: 0 hr 21 min 59 sec) 
Heartbeat CPU  0 instructions:  446000000 cycles:  363231035 heartbeat IPC: 1.18068 cumulative IPC: 1.16149 (Simulation time: 0 hr 22 min 2 sec) 
Heartbeat CPU  0 instructions:  447000002 cycles:  364078022 heartbeat IPC: 1.18066 cumulative IPC: 1.16154 (Simulation time: 0 hr 22 min 5 sec) 
Heartbeat CPU  0 instructions:  448000000 cycles:  364924540 heartbeat IPC: 1.18131 cumulative IPC: 1.16160 (Simulation time: 0 hr 22 min 8 sec) 
Heartbeat CPU  0 instructions:  449000000 cycles:  365772871 heartbeat IPC: 1.17879 cumulative IPC: 1.16165 (Simulation time: 0 hr 22 min 12 sec) 
Heartbeat CPU  0 instructions:  450000000 cycles:  366614604 heartbeat IPC: 1.18803 cumulative IPC: 1.16172 (Simulation time: 0 hr 22 min 15 sec) 
Heartbeat CPU  0 instructions:  451000001 cycles:  367460159 heartbeat IPC: 1.18266 cumulative IPC: 1.16178 (Simulation time: 0 hr 22 min 18 sec) 
Heartbeat CPU  0 instructions:  452000000 cycles:  368306395 heartbeat IPC: 1.18170 cumulative IPC: 1.16183 (Simulation time: 0 hr 22 min 21 sec) 
Heartbeat CPU  0 instructions:  453000000 cycles:  369153511 heartbeat IPC: 1.18048 cumulative IPC: 1.16189 (Simulation time: 0 hr 22 min 24 sec) 
Heartbeat CPU  0 instructions:  454000003 cycles:  369997423 heartbeat IPC: 1.18496 cumulative IPC: 1.16195 (Simulation time: 0 hr 22 min 27 sec) 
Heartbeat CPU  0 instructions:  455000000 cycles:  370847702 heartbeat IPC: 1.17608 cumulative IPC: 1.16199 (Simulation time: 0 hr 22 min 30 sec) 
Heartbeat CPU  0 instructions:  456000000 cycles:  371695702 heartbeat IPC: 1.17925 cumulative IPC: 1.16204 (Simulation time: 0 hr 22 min 33 sec) 
Heartbeat CPU  0 instructions:  457000001 cycles:  372544169 heartbeat IPC: 1.17860 cumulative IPC: 1.16208 (Simulation time: 0 hr 22 min 36 sec) 
Heartbeat CPU  0 instructions:  458000000 cycles:  373388843 heartbeat IPC: 1.18389 cumulative IPC: 1.16214 (Simulation time: 0 hr 22 min 39 sec) 
Heartbeat CPU  0 instructions:  459000000 cycles:  374234763 heartbeat IPC: 1.18214 cumulative IPC: 1.16220 (Simulation time: 0 hr 22 min 42 sec) 
Heartbeat CPU  0 instructions:  460000000 cycles:  375082049 heartbeat IPC: 1.18024 cumulative IPC: 1.16225 (Simulation time: 0 hr 22 min 46 sec) 
Heartbeat CPU  0 instructions:  461000001 cycles:  375925889 heartbeat IPC: 1.18506 cumulative IPC: 1.16231 (Simulation time: 0 hr 22 min 49 sec) 
Heartbeat CPU  0 instructions:  462000000 cycles:  376770909 heartbeat IPC: 1.18340 cumulative IPC: 1.16237 (Simulation time: 0 hr 22 min 52 sec) 
Heartbeat CPU  0 instructions:  463000003 cycles:  377616514 heartbeat IPC: 1.18259 cumulative IPC: 1.16242 (Simulation time: 0 hr 22 min 55 sec) 
Heartbeat CPU  0 instructions:  464000000 cycles:  378464790 heartbeat IPC: 1.17886 cumulative IPC: 1.16246 (Simulation time: 0 hr 22 min 58 sec) 
Heartbeat CPU  0 instructions:  465000000 cycles:  379311628 heartbeat IPC: 1.18086 cumulative IPC: 1.16251 (Simulation time: 0 hr 23 min 1 sec) 
Heartbeat CPU  0 instructions:  466000003 cycles:  380158729 heartbeat IPC: 1.18050 cumulative IPC: 1.16256 (Simulation time: 0 hr 23 min 4 sec) 
Heartbeat CPU  0 instructions:  467000003 cycles:  381004653 heartbeat IPC: 1.18214 cumulative IPC: 1.16261 (Simulation time: 0 hr 23 min 7 sec) 
Heartbeat CPU  0 instructions:  468000000 cycles:  381853566 heartbeat IPC: 1.17797 cumulative IPC: 1.16266 (Simulation time: 0 hr 23 min 11 sec) 
Heartbeat CPU  0 instructions:  469000000 cycles:  382699220 heartbeat IPC: 1.18252 cumulative IPC: 1.16271 (Simulation time: 0 hr 23 min 14 sec) 
Heartbeat CPU  0 instructions:  470000002 cycles:  383545971 heartbeat IPC: 1.18099 cumulative IPC: 1.16276 (Simulation time: 0 hr 23 min 17 sec) 
Heartbeat CPU  0 instructions:  471000000 cycles:  384389870 heartbeat IPC: 1.18497 cumulative IPC: 1.16282 (Simulation time: 0 hr 23 min 20 sec) 
Heartbeat CPU  0 instructions:  472000000 cycles:  385234746 heartbeat IPC: 1.18361 cumulative IPC: 1.16287 (Simulation time: 0 hr 23 min 23 sec) 
Heartbeat CPU  0 instructions:  473000001 cycles:  386081345 heartbeat IPC: 1.18120 cumulative IPC: 1.16292 (Simulation time: 0 hr 23 min 26 sec) 
Heartbeat CPU  0 instructions:  474000000 cycles:  386927185 heartbeat IPC: 1.18226 cumulative IPC: 1.16297 (Simulation time: 0 hr 23 min 29 sec) 
Heartbeat CPU  0 instructions:  475000001 cycles:  387771393 heartbeat IPC: 1.18454 cumulative IPC: 1.16303 (Simulation time: 0 hr 23 min 32 sec) 
Heartbeat CPU  0 instructions:  476000000 cycles:  388616566 heartbeat IPC: 1.18319 cumulative IPC: 1.16308 (Simulation time: 0 hr 23 min 35 sec) 
Heartbeat CPU  0 instructions:  477000000 cycles:  389464490 heartbeat IPC: 1.17935 cumulative IPC: 1.16312 (Simulation time: 0 hr 23 min 38 sec) 
Heartbeat CPU  0 instructions:  478000000 cycles:  390314247 heartbeat IPC: 1.17681 cumulative IPC: 1.16316 (Simulation time: 0 hr 23 min 42 sec) 
Heartbeat CPU  0 instructions:  479000002 cycles:  391159407 heartbeat IPC: 1.18321 cumulative IPC: 1.16321 (Simulation time: 0 hr 23 min 45 sec) 
Heartbeat CPU  0 instructions:  480000000 cycles:  392005811 heartbeat IPC: 1.18147 cumulative IPC: 1.16326 (Simulation time: 0 hr 23 min 48 sec) 
Heartbeat CPU  0 instructions:  481000000 cycles:  392853150 heartbeat IPC: 1.18017 cumulative IPC: 1.16330 (Simulation time: 0 hr 23 min 51 sec) 
Heartbeat CPU  0 instructions:  482000002 cycles:  393700949 heartbeat IPC: 1.17953 cumulative IPC: 1.16334 (Simulation time: 0 hr 23 min 54 sec) 
Heartbeat CPU  0 instructions:  483000003 cycles:  394549173 heartbeat IPC: 1.17894 cumulative IPC: 1.16338 (Simulation time: 0 hr 23 min 57 sec) 
Heartbeat CPU  0 instructions:  484000000 cycles:  395395925 heartbeat IPC: 1.18098 cumulative IPC: 1.16343 (Simulation time: 0 hr 24 min 0 sec) 
Heartbeat CPU  0 instructions:  485000000 cycles:  396244369 heartbeat IPC: 1.17863 cumulative IPC: 1.16347 (Simulation time: 0 hr 24 min 3 sec) 
Heartbeat CPU  0 instructions:  486000002 cycles:  397091042 heartbeat IPC: 1.18110 cumulative IPC: 1.16351 (Simulation time: 0 hr 24 min 6 sec) 
Heartbeat CPU  0 instructions:  487000002 cycles:  397936075 heartbeat IPC: 1.18339 cumulative IPC: 1.16356 (Simulation time: 0 hr 24 min 9 sec) 
Heartbeat CPU  0 instructions:  488000000 cycles:  398782064 heartbeat IPC: 1.18205 cumulative IPC: 1.16361 (Simulation time: 0 hr 24 min 13 sec) 
Heartbeat CPU  0 instructions:  489000001 cycles:  399629237 heartbeat IPC: 1.18040 cumulative IPC: 1.16365 (Simulation time: 0 hr 24 min 16 sec) 
Heartbeat CPU  0 instructions:  490000002 cycles:  400476317 heartbeat IPC: 1.18053 cumulative IPC: 1.16369 (Simulation time: 0 hr 24 min 19 sec) 
Heartbeat CPU  0 instructions:  491000002 cycles:  401326859 heartbeat IPC: 1.17572 cumulative IPC: 1.16373 (Simulation time: 0 hr 24 min 22 sec) 
Heartbeat CPU  0 instructions:  492000000 cycles:  402171896 heartbeat IPC: 1.18338 cumulative IPC: 1.16377 (Simulation time: 0 hr 24 min 25 sec) 
Heartbeat CPU  0 instructions:  493000003 cycles:  403019169 heartbeat IPC: 1.18026 cumulative IPC: 1.16382 (Simulation time: 0 hr 24 min 28 sec) 
Heartbeat CPU  0 instructions:  494000002 cycles:  403868145 heartbeat IPC: 1.17789 cumulative IPC: 1.16385 (Simulation time: 0 hr 24 min 31 sec) 
Heartbeat CPU  0 instructions:  495000002 cycles:  404712646 heartbeat IPC: 1.18413 cumulative IPC: 1.16390 (Simulation time: 0 hr 24 min 34 sec) 
Heartbeat CPU  0 instructions:  496000000 cycles:  405557225 heartbeat IPC: 1.18402 cumulative IPC: 1.16395 (Simulation time: 0 hr 24 min 37 sec) 
Heartbeat CPU  0 instructions:  497000003 cycles:  406406712 heartbeat IPC: 1.17718 cumulative IPC: 1.16398 (Simulation time: 0 hr 24 min 41 sec) 
Heartbeat CPU  0 instructions:  498000000 cycles:  407251662 heartbeat IPC: 1.18350 cumulative IPC: 1.16403 (Simulation time: 0 hr 24 min 44 sec) 
Heartbeat CPU  0 instructions:  499000001 cycles:  408098488 heartbeat IPC: 1.18088 cumulative IPC: 1.16407 (Simulation time: 0 hr 24 min 47 sec) 
Heartbeat CPU  0 instructions:  500000000 cycles:  408944786 heartbeat IPC: 1.18162 cumulative IPC: 1.16412 (Simulation time: 0 hr 24 min 50 sec) 
Heartbeat CPU  0 instructions:  501000000 cycles:  409793770 heartbeat IPC: 1.17788 cumulative IPC: 1.16415 (Simulation time: 0 hr 24 min 53 sec) 
Heartbeat CPU  0 instructions:  502000000 cycles:  410641425 heartbeat IPC: 1.17973 cumulative IPC: 1.16419 (Simulation time: 0 hr 24 min 56 sec) 
Heartbeat CPU  0 instructions:  503000000 cycles:  411490920 heartbeat IPC: 1.17717 cumulative IPC: 1.16422 (Simulation time: 0 hr 24 min 59 sec) 
Heartbeat CPU  0 instructions:  504000000 cycles:  412337598 heartbeat IPC: 1.18109 cumulative IPC: 1.16426 (Simulation time: 0 hr 25 min 2 sec) 
Heartbeat CPU  0 instructions:  505000002 cycles:  413187759 heartbeat IPC: 1.17625 cumulative IPC: 1.16429 (Simulation time: 0 hr 25 min 5 sec) 
Heartbeat CPU  0 instructions:  506000001 cycles:  414035205 heartbeat IPC: 1.18001 cumulative IPC: 1.16433 (Simulation time: 0 hr 25 min 8 sec) 
Heartbeat CPU  0 instructions:  507000001 cycles:  414882228 heartbeat IPC: 1.18061 cumulative IPC: 1.16437 (Simulation time: 0 hr 25 min 11 sec) 
Heartbeat CPU  0 instructions:  508000000 cycles:  415732798 heartbeat IPC: 1.17568 cumulative IPC: 1.16440 (Simulation time: 0 hr 25 min 15 sec) 
Heartbeat CPU  0 instructions:  509000000 cycles:  416575847 heartbeat IPC: 1.18617 cumulative IPC: 1.16445 (Simulation time: 0 hr 25 min 18 sec) 
Heartbeat CPU  0 instructions:  510000001 cycles:  417423146 heartbeat IPC: 1.18022 cumulative IPC: 1.16449 (Simulation time: 0 hr 25 min 21 sec) 
Heartbeat CPU  0 instructions:  511000001 cycles:  418271932 heartbeat IPC: 1.17815 cumulative IPC: 1.16452 (Simulation time: 0 hr 25 min 24 sec) 
[...]
scooby_state_400e09|40|-3 1,0,0,0,0,0,0,0,0,0,0,0,0,0,0,1,
scooby_state_400de0|10|1 1,0,0,0,0,0,0,0,0,0,0,0,0,0,0,1,
scooby_state_400e51|24|0 1,0,0,0,0,0,0,0,0,0,0,0,0,0,0,1,
scooby_state_400e09|43|3 1,0,0,0,0,0,0,0,0,0,0,0,0,0,0,1,
scooby_state_400e09|40|-2 1,0,0,0,0,0,0,0,0,0,0,0,0,0,0,1,
scooby_state_400e38|55|-2 1,0,0,0,0,0,0,0,0,0,0,0,0,0,0,1,
scooby_state_400e56|18|9 1,0,0,0,0,0,0,0,0,0,0,0,0,0,0,1,
scooby_state_400de5|45|43 1,0,0,0,0,0,0,0,0,0,0,0,0,0,0,1,
scooby_state_400dda|6|4 1,0,0,0,0,0,0,0,0,0,0,0,0,0,0,1,
scooby_state_400e44|40|-23 1,0,0,0,0,0,0,0,0,0,0,0,0,0,0,1,
scooby_state_400e20|55|-2 1,0,0,0,0,0,0,0,0,0,0,0,0,0,0,1,
scooby_state_400dcd|57|41 1,0,0,0,0,0,0,0,0,0,0,0,0,0,0,1,
scooby_state_400e09|44|4 1,0,0,0,0,0,0,0,0,0,0,0,0,0,0,1,
scooby_state_400de5|45|-18 1,0,0,0,0,0,0,0,0,0,0,0,0,0,0,1,
scooby_state_400dc0|7|-2 1,0,0,0,0,0,0,0,0,0,0,0,0,0,0,1,
scooby_state_400de5|12|-38 1,0,0,0,0,0,0,0,0,0,0,0,0,0,0,1,
scooby_state_400dda|54|4 1,0,0,0,0,0,0,0,0,0,0,0,0,0,0,1,
scooby_state_400e51|27|3 1,0,0,0,0,0,0,0,0,0,0,0,0,0,0,1,
scooby_state_400844|33|1 1,0,0,0,0,0,0,0,0,0,0,0,0,0,0,1,
scooby_state_400800|32|1 1,0,0,0,0,0,0,0,0,0,0,0,0,0,0,1,
scooby_state_400783|30|1 1,0,0,0,0,0,0,0,0,0,0,0,0,0,0,1,
scooby_state_400744|29|1 1,0,0,0,0,0,0,0,0,0,0,0,0,0,0,1,
scooby_state_400700|28|1 1,0,0,0,0,0,0,0,0,0,0,0,0,0,0,1,
scooby_state_4006c0|27|1 1,0,0,0,0,0,0,0,0,0,0,0,0,0,0,1,
scooby_state_40068b|26|1 1,0,0,0,0,0,0,0,0,0,0,0,0,0,0,1,
scooby_state_40145d|17|-6 1,0,0,0,0,0,0,0,0,0,0,0,0,0,0,1,
scooby_state_400e38|39|3 1,0,0,0,0,0,0,0,0,0,0,0,0,0,0,1,
scooby_state_400e5e|0|-7 1,0,0,0,0,0,0,0,0,0,0,0,0,0,0,1,
scooby_state_400dc0|10|3 1,0,0,0,0,0,0,0,0,0,0,0,0,0,0,1,
scooby_state_400e2c|7|0 1,0,0,0,0,0,0,0,0,0,0,0,0,0,0,1,
scooby_state_400df3|7|-2 1,0,0,0,0,0,0,0,0,0,0,0,0,0,0,1,
scooby_state_400de5|16|-38 1,0,0,0,0,0,0,0,0,0,0,0,0,0,0,1,
scooby_state_400e44|54|-9 1,0,0,0,0,0,0,0,0,0,0,0,0,0,0,1,
scooby_state_400e2c|54|-1 1,0,0,0,0,0,0,0,0,0,0,0,0,0,0,1,
scooby_state_400e2c|38|0 1,0,0,0,0,0,0,0,0,0,0,0,0,0,0,1,
scooby_state_400de5|28|-35 1,0,0,0,0,0,0,0,0,0,0,0,0,0,0,1,
scooby_state_400dfd|6|2 1,0,0,0,0,0,0,0,0,0,0,0,0,0,0,1,
scooby_state_400de5|0|-11 1,0,0,0,0,0,0,0,0,0,0,0,0,0,0,1,
scooby_state_400e09|39|3 1,0,0,0,0,0,0,0,0,0,0,0,0,0,0,1,
scooby_state_400e09|36|-2 1,0,0,0,0,0,0,0,0,0,0,0,0,0,0,1,
scooby_state_400dda|36|-1 1,0,0,0,0,0,0,0,0,0,0,0,0,0,0,1,
scooby_state_400dda|24|0 1,0,0,0,0,0,0,0,0,0,0,0,0,0,0,1,
scooby_state_400de5|59|-4 1,0,0,0,0,0,0,0,0,0,0,0,0,0,0,1,
scooby_state_400e5e|0|-19 1,0,0,0,0,0,0,0,0,0,0,0,0,0,0,1,
scooby_state_400e44|35|-28 1,0,0,0,0,0,0,0,0,0,0,0,0,0,0,1,
scooby_state_400e5e|43|-20 1,0,0,0,0,0,0,0,0,0,0,0,0,0,0,1,
scooby_state_400e09|6|4 1,0,0,0,0,0,0,0,0,0,0,0,0,0,0,1,
scooby_state_400b60|45|-17 1,0,0,0,0,0,0,0,0,0,0,0,0,0,0,1,
scooby_state_400dfd|33|2 1,0,0,0,0,0,0,0,0,0,0,0,0,0,0,1,
scooby_state_400df3|6|4 1,0,0,0,0,0,0,0,0,0,0,0,0,0,0,1,
scooby_state_400dda|38|2 1,0,0,0,0,0,0,0,0,0,0,0,0,0,0,1,
scooby_state_400d85|54|1 1,0,0,0,0,0,0,0,0,0,0,0,0,0,0,1,
scooby_state_400df3|28|4 1,0,0,0,0,0,0,0,0,0,0,0,0,0,0,1,
scooby_state_400de5|5|-38 1,0,0,0,0,0,0,0,0,0,0,0,0,0,0,1,
scooby_state_4027ea|31|0 1,0,0,0,0,0,0,0,0,0,0,0,0,0,0,1,
scooby_state_401082|2|0 1,0,0,0,0,0,0,0,0,0,0,0,0,0,0,1,
scooby_state_401003|0|0 1,0,0,0,0,0,0,0,0,0,0,0,0,0,0,1,
scooby_state_400c40|49|1 1,0,0,0,0,0,0,0,0,0,0,0,0,0,0,1,
scooby_state_400e44|59|-4 1,0,0,0,0,0,0,0,0,0,0,0,0,0,0,1,
scooby_state_400de5|35|-28 1,0,0,0,0,0,0,0,0,0,0,0,0,0,0,1,
scooby_state_400e20|5|-3 1,0,0,0,0,0,0,0,0,0,0,0,0,0,0,1,
scooby_state_400317|41|0 1,0,0,0,0,0,0,0,0,0,0,0,0,0,0,1,
scooby_state_400e38|36|-2 1,0,0,0,0,0,0,0,0,0,0,0,0,0,0,1,
scooby_state_400dda|38|4 1,0,0,0,0,0,0,0,0,0,0,0,0,0,0,1,
scooby_state_400e09|56|-3 1,0,0,0,0,0,0,0,0,0,0,0,0,0,0,1,
scooby_state_400e44|54|2 1,0,0,0,0,0,0,0,0,0,0,0,0,0,0,1,
scooby_state_400a05|40|-23 0,1,0,0,0,0,0,0,0,0,0,0,0,0,0,1,
scooby_state_400e09|17|-1 1,0,0,0,0,0,0,0,0,0,0,0,0,0,0,1,
scooby_state_400de5|8|-38 1,0,0,0,0,0,0,0,0,0,0,0,0,0,0,1,
scooby_state_400f4f|17|5 1,0,0,0,0,0,0,0,0,0,0,0,0,0,0,1,
scooby_state_400ee8|14|5 1,0,0,0,0,0,0,0,0,0,0,0,0,0,0,1,
scooby_state_401104|4|1 1,0,0,0,0,0,0,0,0,0,0,0,0,0,0,1,
scooby_state_400bc7|47|1 1,0,0,0,0,0,0,0,0,0,0,0,0,0,0,1,
scooby_state_400c04|48|1 1,0,0,0,0,0,0,0,0,0,0,0,0,0,0,1,
scooby_state_400d43|53|1 1,0,0,0,0,0,0,0,0,0,0,0,0,0,0,1,
scooby_state_400dc0|5|-3 1,0,0,0,0,0,0,0,0,0,0,0,0,0,0,1,
scooby_state_400c84|50|1 1,0,0,0,0,0,0,0,0,0,0,0,0,0,0,1,
scooby_state_400dfd|38|2 1,0,0,0,0,0,0,0,0,0,0,0,0,0,0,1,
scooby_state_400342|13|1 1,0,0,0,0,0,0,0,0,0,0,0,0,0,0,1,
scooby_state_400e7c|20|5 1,0,0,0,0,0,0,0,0,0,0,0,0,0,0,1,
scooby_state_4004af|18|1 1,0,0,0,0,0,0,0,0,0,0,0,0,0,0,1,
scooby_state_400e2c|57|0 1,0,0,0,0,0,0,0,0,0,0,0,0,0,0,1,
scooby_state_401040|1|1 1,0,0,0,0,0,0,0,0,0,0,0,0,0,0,1,
scooby_state_400df3|43|3 1,0,0,0,0,0,0,0,0,0,0,0,0,0,0,1,
scooby_state_400e5e|0|-9 1,0,0,0,0,0,0,0,0,0,0,0,0,0,0,1,
scooby_state_400e2c|8|-1 1,0,0,0,0,0,0,0,0,0,0,0,0,0,0,1,
scooby_state_400e2c|3|-1 1,0,0,0,0,0,0,0,0,0,0,0,0,0,0,1,
scooby_state_400e0e|56|0 1,0,0,0,0,0,0,0,0,0,0,0,0,0,0,1,
scooby_state_400e5e|40|-1 1,0,0,0,0,0,0,0,0,0,0,0,0,0,0,1,
scooby_state_401502|20|1 1,0,0,0,0,0,0,0,0,0,0,0,0,0,0,1,
scooby_state_400dfd|35|2 1,0,0,0,0,0,0,0,0,0,0,0,0,0,0,1,
scooby_state_400e2c|47|-1 1,0,0,0,0,0,0,0,0,0,0,0,0,0,0,1,
scooby_state_400e5e|0|-31 1,0,0,0,0,0,0,0,0,0,0,0,0,0,0,1,
scooby_state_400e44|61|-2 1,0,0,0,0,0,0,0,0,0,0,0,0,0,0,1,
scooby_state_400e5e|0|-16 1,0,0,0,0,0,0,0,0,0,0,0,0,0,0,1,
scooby_state_400eac|16|5 1,0,0,0,0,0,0,0,0,0,0,0,0,0,0,1,
scooby_state_400de5|3|-38 1,0,0,0,0,0,0,0,0,0,0,0,0,0,0,1,
scooby_state_400de5|43|0 1,0,0,0,0,0,0,0,0,0,0,0,0,0,0,1,
scooby_state_400e5e|41|0 1,0,0,0,0,0,0,0,0,0,0,0,0,0,0,1,
scooby_state_400e2c|13|-1 1,0,0,0,0,0,0,0,0,0,0,0,0,0,0,1,
scooby_state_40287b|35|0 1,0,0,0,0,0,0,0,0,0,0,0,0,0,0,1,
scooby_state_4009c2|39|1 1,0,0,0,0,0,0,0,0,0,0,0,0,0,0,1,
scooby_state_400df3|60|4 1,0,0,0,0,0,0,0,0,0,0,0,0,0,0,1,
scooby_state_400e51|5|-3 1,0,0,0,0,0,0,0,0,0,0,0,0,0,0,1,
scooby_state_4008ba|34|0 1,0,0,0,0,0,0,0,0,0,0,0,0,0,0,1,
scooby_state_400e44|48|0 1,0,0,0,0,0,0,0,0,0,0,0,0,0,0,1,
scooby_state_400cd8|11|-5 1,0,0,0,0,0,0,0,0,0,0,0,0,0,0,1,
scooby_state_400dfd|41|2 1,0,0,0,0,0,0,0,0,0,0,0,0,0,0,1,
scooby_state_400e38|17|-1 1,0,0,0,0,0,0,0,0,0,0,0,0,0,0,1,
scooby_state_400e2c|40|-1 1,0,0,0,0,0,0,0,0,0,0,0,0,0,0,1,
scooby_state_400e09|2|-3 1,0,0,0,0,0,0,0,0,0,0,0,0,0,0,1,
scooby_state_400e2c|38|-1 1,0,0,0,0,0,0,0,0,0,0,0,0,0,0,1,
scooby_state_4003de|15|1 1,0,0,0,0,0,0,0,0,0,0,0,0,0,0,1,
scooby_state_400dc0|39|3 1,0,0,0,0,0,0,0,0,0,0,0,0,0,0,1,
scooby_state_400e44|33|-30 1,0,0,0,0,0,0,0,0,0,0,0,0,0,0,1,
scooby_state_400a87|42|1 1,0,0,0,0,0,0,0,0,0,0,0,0,0,0,1,
scooby_state_400e20|10|3 1,0,0,0,0,0,0,0,0,0,0,0,0,0,0,1,
scooby_state_400dfd|43|0 1,0,0,0,0,0,0,0,0,0,0,0,0,0,0,1,
scooby_state_400e44|51|-12 1,0,0,0,0,0,0,0,0,0,0,0,0,0,0,1,
scooby_state_4007c0|31|1 1,0,0,0,0,0,0,0,0,0,0,0,0,0,0,1,
scooby_state_400de5|40|-23 1,0,0,0,0,0,0,0,0,0,0,0,0,0,0,1,
scooby_state_400de5|11|-38 1,0,0,0,0,0,0,0,0,0,0,0,0,0,0,1,
scooby_state_400e44|30|-33 1,0,0,0,0,0,0,0,0,0,0,0,0,0,0,1,
scooby_state_4005a3|22|1 1,0,0,0,0,0,0,0,0,0,0,0,0,0,0,1,
scooby_state_400df3|40|-2 1,0,0,0,0,0,0,0,0,0,0,0,0,0,0,1,
scooby_state_400e2c|52|-1 1,0,0,0,0,0,0,0,0,0,0,0,0,0,0,1,
scooby_state_400e51|9|4 1,0,0,0,0,0,0,0,0,0,0,0,0,0,0,1,
scooby_state_400e51|17|-1 1,0,0,0,0,0,0,0,0,0,0,0,0,0,0,1,
scooby_state_400df3|50|-3 1,0,0,0,0,0,0,0,0,0,0,0,0,0,0,1,
scooby_state_4014fa|19|-8 1,0,0,0,0,0,0,0,0,0,0,0,0,0,0,1,
scooby_state_4010c7|3|1 1,0,0,0,0,0,0,0,0,0,0,0,0,0,0,1,
scooby_state_400942|37|1 1,0,0,0,0,0,0,0,0,0,0,0,0,0,0,1,
scooby_state_400987|38|1 1,0,0,0,0,0,0,0,0,0,0,0,0,0,0,1,
scooby_state_400e13|59|0 1,0,0,0,0,0,0,0,0,0,0,0,0,0,0,1,
scooby_state_400e20|58|3 1,0,0,0,0,0,0,0,0,0,0,0,0,0,0,1,
scooby_state_400e51|38|2 1,0,0,0,0,0,0,0,0,0,0,0,0,0,0,1,
scooby_state_400e09|60|4 1,0,0,0,0,0,0,0,0,0,0,0,0,0,0,1,
scooby_state_400e2c|4|-1 1,0,0,0,0,0,0,0,0,0,0,0,0,0,0,1,
scooby_state_400e44|52|-1 1,0,0,0,0,0,0,0,0,0,0,0,0,0,0,1,
scooby_state_402605|24|0 1,0,0,0,0,0,0,0,0,0,0,0,0,0,0,1,
scooby_state_400de5|0|-28 1,0,0,0,0,0,0,0,0,0,0,0,0,0,0,1,
scooby_state_402800|32|1 1,0,0,0,0,0,0,0,0,0,0,0,0,0,0,1,
scooby_state_400e51|6|4 1,0,0,0,0,0,0,0,0,0,0,0,0,0,0,1,
scooby_state_400e2c|14|-1 1,0,0,0,0,0,0,0,0,0,0,0,0,0,0,1,
scooby_state_400dda|5|-3 1,0,0,0,0,0,0,0,0,0,0,0,0,0,0,1,
scooby_state_400e2c|37|-1 1,0,0,0,0,0,0,0,0,0,0,0,0,0,0,1,
scooby_state_400de5|0|-7 1,0,0,0,0,0,0,0,0,0,0,0,0,0,0,1,
scooby_state_400e44|7|1 1,0,0,0,0,0,0,0,0,0,0,0,0,0,0,1,
scooby_state_400e2c|60|-1 1,0,0,0,0,0,0,0,0,0,0,0,0,0,0,1,
scooby_state_4025e0|28|-4 1,0,0,0,0,0,0,0,0,0,0,0,0,0,0,1,
scooby_state_400e5e|0|-12 1,0,0,0,0,0,0,0,0,0,0,0,0,0,0,1,
scooby_state_400dda|9|4 1,0,0,0,0,0,0,0,0,0,0,0,0,0,0,1,
scooby_state_400e20|9|4 1,0,0,0,0,0,0,0,0,0,0,0,0,0,0,1,
scooby_state_400de5|0|-23 1,0,0,0,0,0,0,0,0,0,0,0,0,0,0,1,
scooby_state_400e09|27|3 1,0,0,0,0,0,0,0,0,0,0,0,0,0,0,1,
scooby_state_400de5|10|-38 1,0,0,0,0,0,0,0,0,0,0,0,0,0,0,1,
scooby_state_400dfd|36|2 1,0,0,0,0,0,0,0,0,0,0,0,0,0,0,1,
scooby_state_400eac|16|2 1,0,0,0,0,0,0,0,0,0,0,0,0,0,0,1,
scooby_state_400de5|7|-38 1,0,0,0,0,0,0,0,0,0,0,0,0,0,0,1,
scooby_state_400dcd|60|42 1,0,0,0,0,0,0,0,0,0,0,0,0,0,0,1,
scooby_state_4027ee|25|-5 1,0,0,0,0,0,0,0,0,0,0,0,0,0,0,1,
scooby_state_400643|25|1 1,0,0,0,0,0,0,0,0,0,0,0,0,0,0,1,
scooby_state_400dfd|4|2 1,0,0,0,0,0,0,0,0,0,0,0,0,0,0,1,
scooby_state_400de5|19|-38 1,0,0,0,0,0,0,0,0,0,0,0,0,0,0,1,
scooby_state_400e5e|0|-18 1,0,0,0,0,0,0,0,0,0,0,0,0,0,0,1,
scooby_state_400dfd|56|0 1,0,0,0,0,0,0,0,0,0,0,0,0,0,0,1,
scooby_state_400e2c|34|-1 1,0,0,0,0,0,0,0,0,0,0,0,0,0,0,1,
scooby_state_400de5|21|-38 1,0,0,0,0,0,0,0,0,0,0,0,0,0,0,1,
scooby_state_400de5|0|-14 1,0,0,0,0,0,0,0,0,0,0,0,0,0,0,1,
scooby_state_400dfd|58|2 1,0,0,0,0,0,0,0,0,0,0,0,0,0,0,1,
scooby_state_400e0e|10|0 1,0,0,0,0,0,0,0,0,0,0,0,0,0,0,1,
scooby_state_400cc8|51|-8 1,0,0,0,0,0,0,0,0,0,0,0,0,0,0,1,
scooby_state_400e38|59|4 1,0,0,0,0,0,0,0,0,0,0,0,0,0,0,1,
scooby_state_4008c1|35|1 1,0,0,0,0,0,0,0,0,0,0,0,0,0,0,1,
scooby_state_400dc8|9|-13 1,0,0,0,0,0,0,0,0,0,0,0,0,0,0,1,
scooby_state_400e2c|58|-1 1,0,0,0,0,0,0,0,0,0,0,0,0,0,0,1,
scooby_state_400de5|63|0 1,0,0,0,0,0,0,0,0,0,0,0,0,0,0,1,
scooby_state_400f42|61|1 1,0,0,0,0,0,0,0,0,0,0,0,0,0,0,1,
scooby_state_400de5|39|-24 1,0,0,0,0,0,0,0,0,0,0,0,0,0,0,1,
scooby_state_400f0d|22|-3 1,0,0,0,0,0,0,0,0,0,0,0,0,0,0,1,
scooby_state_400df3|24|-3 1,0,0,0,0,0,0,0,0,0,0,0,0,0,0,1,
scooby_state_400de5|38|-25 1,0,0,0,0,0,0,0,0,0,0,0,0,0,0,1,
scooby_state_400e2c|26|-1 1,0,0,0,0,0,0,0,0,0,0,0,0,0,0,1,
scooby_state_400a40|41|1 1,0,0,0,0,0,0,0,0,0,0,0,0,0,0,1,
scooby_state_400dfd|27|2 1,0,0,0,0,0,0,0,0,0,0,0,0,0,0,1,
scooby_state_400e44|25|-38 1,0,0,0,0,0,0,0,0,0,0,0,0,0,0,1,
scooby_state_400d00|52|1 1,0,0,0,0,0,0,0,0,0,0,0,0,0,0,1,
scooby_state_400e2c|56|-2 1,0,0,0,0,0,0,0,0,0,0,0,0,0,0,1,
scooby_state_400e74|15|3 1,0,0,0,0,0,0,0,0,0,0,0,0,0,0,1,
scooby_state_402545|21|1 1,0,0,0,0,0,0,0,0,0,0,0,0,0,0,1,
scooby_state_400e66|12|-6 1,0,0,0,0,0,0,0,0,0,0,0,0,0,0,1,
scooby_state_400de5|63|40 1,0,0,0,0,0,0,0,0,0,0,0,0,0,0,1,
scooby_state_400e5e|42|2 1,0,0,0,0,0,0,0,0,0,0,0,0,0,0,1,
scooby_state_400eac|16|-4 1,0,0,0,0,0,0,0,0,0,0,0,0,0,0,1,
scooby_state_400e44|49|-14 1,0,0,0,0,0,0,0,0,0,0,0,0,0,0,1,
scooby_state_402901|36|0 1,0,0,0,0,0,0,0,0,0,0,0,0,0,0,1,
scooby_state_400dc0|17|-1 1,0,0,0,0,0,0,0,0,0,0,0,0,0,0,1,
scooby_state_400d3b|23|9 1,0,0,0,0,0,0,0,0,0,0,0,0,0,0,1,
scooby_state_400902|36|1 1,0,0,0,0,0,0,0,0,0,0,0,0,0,0,1,
scooby_state_400e2c|25|-1 1,0,0,0,0,0,0,0,0,0,0,0,0,0,0,1,
scooby_state_400e2c|30|-1 1,0,0,0,0,0,0,0,0,0,0,0,0,0,0,1,
scooby_state_4024d1|41|0 1,0,0,0,0,0,0,0,0,0,0,0,0,0,0,1,
scooby_state_400525|20|1 1,0,0,0,0,0,0,0,0,0,0,0,0,0,0,1,
scooby_state_400e5e|0|-23 1,0,0,0,0,0,0,0,0,0,0,0,0,0,0,1,
scooby_state_400f87|62|1 1,0,0,0,0,0,0,0,0,0,0,0,0,0,0,1,
scooby_state_400fc1|63|13 1,0,0,0,0,0,0,0,0,0,0,0,0,0,0,1,
scooby_state_401783|30|1 1,0,0,0,0,0,0,0,0,0,0,0,0,0,0,1,
scooby_state_4014aa|18|1 1,0,0,0,0,0,0,0,0,0,0,0,0,0,0,1,
scooby_state_400dc0|6|4 1,0,0,0,0,0,0,0,0,0,0,0,0,0,0,1,
scooby_state_400dda|55|-2 1,0,0,0,0,0,0,0,0,0,0,0,0,0,0,1,
scooby_state_400de5|57|-6 1,0,0,0,0,0,0,0,0,0,0,0,0,0,0,1,
scooby_state_400ec7|59|1 1,0,0,0,0,0,0,0,0,0,0,0,0,0,0,1,
scooby_state_400de5|9|-38 1,0,0,0,0,0,0,0,0,0,0,0,0,0,0,1,
scooby_state_400b00|44|1 1,0,0,0,0,0,0,0,0,0,0,0,0,0,0,1,
scooby_state_400e85|58|1 1,0,0,0,0,0,0,0,0,0,0,0,0,0,0,1,
scooby_state_400ac4|43|1 1,0,0,0,0,0,0,0,0,0,0,0,0,0,0,1,
scooby_state_400f00|60|5 1,0,0,0,0,0,0,0,0,0,0,0,0,0,0,1,
scooby_state_400e09|41|2 1,0,0,0,0,0,0,0,0,0,0,0,0,0,0,1,

scooby_action_0_deg_dist 0,1452,0,0,0,0,0,0,0,0,0,0,0,0,0,0,
scooby_action_4_deg_dist 0,1480,0,0,0,0,0,0,0,0,0,0,0,0,0,0,
scooby_action_3_deg_dist 0,1451,0,0,0,0,0,0,0,0,0,0,0,0,0,0,
scooby_action_32_deg_dist 0,1398,0,0,0,0,0,0,0,0,0,0,0,0,0,0,
scooby_action_5_deg_dist 0,1424,0,0,0,0,0,0,0,0,0,0,0,0,0,0,
scooby_action_1_deg_dist 0,583561,339376,0,849853,0,10218794,0,0,0,0,0,0,0,0,0,
scooby_action_30_deg_dist 0,1436,0,0,0,0,0,0,0,0,0,0,0,0,0,0,
scooby_action_-3_deg_dist 0,1442,0,0,0,0,0,0,0,0,0,0,0,0,0,0,
scooby_action_10_deg_dist 0,1490,0,0,0,0,0,0,0,0,0,0,0,0,0,0,
scooby_action_-1_deg_dist 0,1462,0,0,0,0,0,0,0,0,0,0,0,0,0,0,
scooby_action_23_deg_dist 0,1412,0,0,0,0,0,0,0,0,0,0,0,0,0,0,
scooby_action_-6_deg_dist 0,1432,0,0,0,0,0,0,0,0,0,0,0,0,0,0,
scooby_action_11_deg_dist 0,1449,0,0,0,0,0,0,0,0,0,0,0,0,0,0,
scooby_action_22_deg_dist 0,1474,0,0,0,0,0,0,0,0,0,0,0,0,0,0,
scooby_action_12_deg_dist 0,1523,0,0,0,0,0,0,0,0,0,0,0,0,0,0,

scooby_track_called 12011909
scooby_track_same_address 622722
scooby_track_evict 11388931

scooby_reward_demand_called 12011909
scooby_reward_demand_pt_not_found 258342
scooby_reward_demand_pt_found 11753567
scooby_reward_demand_pt_found_total 11753567
scooby_reward_demand_has_reward 571900
scooby_reward_train_called 26702
scooby_reward_assign_reward_called 11389175
scooby_reward_no_pref 1452
scooby_reward_incorrect 25250
scooby_reward_correct_untimely 10474404
scooby_reward_correct_timely 707263
scooby_reward_out_of_bounds 180806
scooby_reward_tracker_hit 0

scooby_reward_none_low_bw 1452
scooby_reward_none_high_bw 0
scooby_reward_incorrect_low_bw 25250
scooby_reward_incorrect_high_bw 0
scooby_reward_correct_untimely_low_bw 10474404
scooby_reward_correct_untimely_high_bw 0
scooby_reward_correct_timely_low_bw 707263
scooby_reward_correct_timely_high_bw 0
scooby_reward_out_of_bounds_low_bw 180806
scooby_reward_out_of_bounds_high_bw 0
scooby_reward_tracker_hit_low_bw 0
scooby_reward_tracker_hit_high_bw 0

scooby_reward_1 0,23881,10472004,699557,177307,0,
scooby_reward_3 0,9,1089,264,65,0,
scooby_reward_4 0,12,830,556,77,0,
scooby_reward_5 0,10,480,807,127,0,
scooby_reward_10 0,157,0,1117,215,0,
scooby_reward_11 0,148,0,1057,242,0,
scooby_reward_12 0,159,0,1068,295,0,
scooby_reward_22 0,111,0,878,485,0,
scooby_reward_23 0,122,0,834,456,0,
scooby_reward_30 0,98,0,701,637,0,
scooby_reward_32 0,288,0,424,686,0,
scooby_reward_-1 0,32,1,0,26,0,
scooby_reward_-3 0,37,0,0,72,0,
scooby_reward_-6 0,186,0,0,116,0,
scooby_reward_0 1452,0,0,0,0,0,

scooby_train_called 11388930
scooby_train_compute_reward 26702

scooby_register_fill_called 10180298
scooby_register_fill_set 710459
scooby_register_fill_set_total 710459

scooby_register_prefetch_hit_called 31486142
scooby_register_prefetch_hit_set 9523238
scooby_register_prefetch_hit_set_total 9523238

scooby_pref_issue_scooby 58783143

learning_engine_featurewise.action.called 12011909
learning_engine_featurewise.action.explore 21803
learning_engine_featurewise.action.exploit 11990106
learning_engine_featurewise.action.fallback 0
learning_engine_featurewise.action.dyn_fallback_saved_bw 0
learning_engine_featurewise.action.dyn_fallback_saved_bw_acc 806
learning_engine_featurewise.action.index_1_explored 1481
learning_engine_featurewise.action.index_1_exploited 11990103
learning_engine_featurewise.action.index_3_explored 1450
learning_engine_featurewise.action.index_3_exploited 1
learning_engine_featurewise.action.index_4_explored 1480
learning_engine_featurewise.action.index_4_exploited 0
learning_engine_featurewise.action.index_5_explored 1424
learning_engine_featurewise.action.index_5_exploited 0
learning_engine_featurewise.action.index_10_explored 1490
learning_engine_featurewise.action.index_10_exploited 0
learning_engine_featurewise.action.index_11_explored 1449
learning_engine_featurewise.action.index_11_exploited 0
learning_engine_featurewise.action.index_12_explored 1523
learning_engine_featurewise.action.index_12_exploited 0
learning_engine_featurewise.action.index_22_explored 1473
learning_engine_featurewise.action.index_22_exploited 1
learning_engine_featurewise.action.index_23_explored 1412
learning_engine_featurewise.action.index_23_exploited 0
learning_engine_featurewise.action.index_30_explored 1435
learning_engine_featurewise.action.index_30_exploited 1
learning_engine_featurewise.action.index_32_explored 1398
learning_engine_featurewise.action.index_32_exploited 0
learning_engine_featurewise.action.index_-1_explored 1462
learning_engine_featurewise.action.index_-1_exploited 0
learning_engine_featurewise.action.index_-3_explored 1442
learning_engine_featurewise.action.index_-3_exploited 0
learning_engine_featurewise.action.index_-6_explored 1432
learning_engine_featurewise.action.index_-6_exploited 0
learning_engine_featurewise.action.index_0_explored 1452
learning_engine_featurewise.action.index_0_exploited 0
learning_engine_featurewise.learn.called 11388930
learning_engine_featurewise.learn.su_skip_PC 0
learning_engine_featurewise.learn.su_skip_PC_Delta 0

learning_engine_featurewise.q_value_histogram.bucket_0 0
learning_engine_featurewise.q_value_histogram.bucket_1 0
learning_engine_featurewise.q_value_histogram.bucket_2 0
learning_engine_featurewise.q_value_histogram.bucket_3 0
learning_engine_featurewise.q_value_histogram.bucket_4 3507
learning_engine_featurewise.q_value_histogram.bucket_5 15145
learning_engine_featurewise.q_value_histogram.bucket_6 11971454
learning_engine_featurewise.q_value_histogram.bucket_7 0

learning_engine_featurewise.consensus.total 11990106
learning_engine_featurewise.consensus.feature_align_PC 11986913
learning_engine_featurewise.consensus.feature_align_PC_ratio 1.00
learning_engine_featurewise.consensus.feature_align_PC_Delta 11986228
learning_engine_featurewise.consensus.feature_align_PC_Delta_ratio 1.00
learning_engine_featurewise.consensus.feature_align_all 11983035
learning_engine_featurewise.consensus.feature_align_all_ratio 1.00

learning_engine_featurewise.feature_PC_min_weight 1000000.00000000
learning_engine_featurewise.feature_PC_max_weight 0.00000000
learning_engine_featurewise.feature_PC_Delta_min_weight 1000000.00000000
learning_engine_featurewise.feature_PC_Delta_max_weight 0.00000000
unique_pcs 147
unique_pages 102780
unique_trigger_pcs 33
total_bitmaps_seen 0
unique_bitmaps_seen 0

scooby_bw_epochs 1928293
scooby_bw_level_0 625302
scooby_bw_level_1 483381
scooby_bw_level_2 366133
scooby_bw_level_3 453477

scooby_ipc_epochs 0
scooby_ipc_level_0 0
scooby_ipc_level_1 0
scooby_ipc_level_2 0
scooby_ipc_level_3 0

scooby_cache_acc_epochs 468393
scooby_cache_acc_level_0 1
scooby_cache_acc_level_1 0
scooby_cache_acc_level_2 120
scooby_cache_acc_level_3 235
scooby_cache_acc_level_4 893
scooby_cache_acc_level_5 2461
scooby_cache_acc_level_6 4807
scooby_cache_acc_level_7 11583
scooby_cache_acc_level_8 37207
scooby_cache_acc_level_9 411086

Channel_0_RQ_row_buffer_hit 6458371
Channel_0_RQ_row_buffer_miss 2796218
Channel_0_WQ_row_buffer_hit 93267
Channel_0_WQ_row_buffer_miss 294172
Channel_0_WQ_full 0
Channel_0_dbus_congested 3300920

avg_congested_cycle 8

DRAM_bw_pochs 1928293
DRAM_bw_level_0 625302
DRAM_bw_level_1 483381
DRAM_bw_level_2 366133
DRAM_bw_level_3 453477
