
*** ChampSim Multicore Out-of-Order Simulator ***

**************************
Prefetch will query the cache and affect the replacement policy!
**************************
Warmup Instructions: 100000000
Simulation Instructions: 500000000
Number of CPUs: 1
LLC sets: 2048
LLC ways: 16
Off-chip DRAM Size: 4096 MB Channels: 1 Width: 64-bit Data Rate: 3200 MT/s

CPU 0 runs /home/shichen/os/compile-time-prefetcher-classification/ChampSim/traces/433.milc-337B.champsimtrace.xz
Initialize SHIP state
Assign rand_sets[0]: 454  LLC: 2048
rand_sets[0]: 454
Assign rand_sets[1]: 1662  LLC: 2048
rand_sets[1]: 1662
Assign rand_sets[2]: 1921  LLC: 2048
rand_sets[2]: 1921
Assign rand_sets[3]: 1131  LLC: 2048
rand_sets[3]: 1131
Assign rand_sets[4]: 331  LLC: 2048
rand_sets[4]: 331
Assign rand_sets[5]: 1531  LLC: 2048
rand_sets[5]: 1531
Assign rand_sets[6]: 482  LLC: 2048
rand_sets[6]: 482
Assign rand_sets[7]: 1275  LLC: 2048
rand_sets[7]: 1275
Assign rand_sets[8]: 1876  LLC: 2048
rand_sets[8]: 1876
Assign rand_sets[9]: 2038  LLC: 2048
rand_sets[9]: 2038
Assign rand_sets[10]: 701  LLC: 2048
rand_sets[10]: 701
Assign rand_sets[11]: 479  LLC: 2048
rand_sets[11]: 479
Assign rand_sets[12]: 892  LLC: 2048
rand_sets[12]: 892
Assign rand_sets[13]: 1820  LLC: 2048
rand_sets[13]: 1820
Assign rand_sets[14]: 1505  LLC: 2048
rand_sets[14]: 1505
Assign rand_sets[15]: 1159  LLC: 2048
rand_sets[15]: 1159
Assign rand_sets[16]: 513  LLC: 2048
rand_sets[16]: 513
Assign rand_sets[17]: 703  LLC: 2048
rand_sets[17]: 703
Assign rand_sets[18]: 561  LLC: 2048
rand_sets[18]: 561
Assign rand_sets[19]: 990  LLC: 2048
rand_sets[19]: 990
Assign rand_sets[20]: 342  LLC: 2048
rand_sets[20]: 342
Assign rand_sets[21]: 882  LLC: 2048
rand_sets[21]: 882
Assign rand_sets[22]: 15  LLC: 2048
rand_sets[22]: 15
Assign rand_sets[23]: 71  LLC: 2048
rand_sets[23]: 71
Assign rand_sets[24]: 1127  LLC: 2048
rand_sets[24]: 1127
Assign rand_sets[25]: 1382  LLC: 2048
rand_sets[25]: 1382
Assign rand_sets[26]: 647  LLC: 2048
rand_sets[26]: 647
Assign rand_sets[27]: 857  LLC: 2048
rand_sets[27]: 857
Assign rand_sets[28]: 1450  LLC: 2048
rand_sets[28]: 1450
Assign rand_sets[29]: 1160  LLC: 2048
rand_sets[29]: 1160
Assign rand_sets[30]: 1852  LLC: 2048
rand_sets[30]: 1852
Assign rand_sets[31]: 1881  LLC: 2048
rand_sets[31]: 1881
Assign rand_sets[32]: 1770  LLC: 2048
rand_sets[32]: 1770
Assign rand_sets[33]: 1622  LLC: 2048
rand_sets[33]: 1622
Assign rand_sets[34]: 275  LLC: 2048
rand_sets[34]: 275
Assign rand_sets[35]: 635  LLC: 2048
rand_sets[35]: 635
Assign rand_sets[36]: 466  LLC: 2048
rand_sets[36]: 466
Assign rand_sets[37]: 1413  LLC: 2048
rand_sets[37]: 1413
Assign rand_sets[38]: 417  LLC: 2048
rand_sets[38]: 417
Assign rand_sets[39]: 472  LLC: 2048
rand_sets[39]: 472
Assign rand_sets[40]: 1340  LLC: 2048
rand_sets[40]: 1340
Assign rand_sets[41]: 852  LLC: 2048
rand_sets[41]: 852
Assign rand_sets[42]: 1365  LLC: 2048
rand_sets[42]: 1365
Assign rand_sets[43]: 47  LLC: 2048
rand_sets[43]: 47
Assign rand_sets[44]: 823  LLC: 2048
rand_sets[44]: 823
Assign rand_sets[45]: 686  LLC: 2048
rand_sets[45]: 686
Assign rand_sets[46]: 1637  LLC: 2048
rand_sets[46]: 1637
Assign rand_sets[47]: 1115  LLC: 2048
rand_sets[47]: 1115
Assign rand_sets[48]: 986  LLC: 2048
rand_sets[48]: 986
Assign rand_sets[49]: 258  LLC: 2048
rand_sets[49]: 258
Assign rand_sets[50]: 633  LLC: 2048
rand_sets[50]: 633
Assign rand_sets[51]: 920  LLC: 2048
rand_sets[51]: 920
Assign rand_sets[52]: 204  LLC: 2048
rand_sets[52]: 204
Assign rand_sets[53]: 227  LLC: 2048
rand_sets[53]: 227
Assign rand_sets[54]: 1818  LLC: 2048
rand_sets[54]: 1818
Assign rand_sets[55]: 886  LLC: 2048
rand_sets[55]: 886
Assign rand_sets[56]: 1422  LLC: 2048
rand_sets[56]: 1422
Assign rand_sets[57]: 607  LLC: 2048
rand_sets[57]: 607
Assign rand_sets[58]: 217  LLC: 2048
rand_sets[58]: 217
Assign rand_sets[59]: 1945  LLC: 2048
rand_sets[59]: 1945
Assign rand_sets[60]: 143  LLC: 2048
rand_sets[60]: 143
Assign rand_sets[61]: 1311  LLC: 2048
rand_sets[61]: 1311
Assign rand_sets[62]: 319  LLC: 2048
rand_sets[62]: 319
Assign rand_sets[63]: 1846  LLC: 2048
rand_sets[63]: 1846
Assign rand_sets[64]: 238  LLC: 2048
rand_sets[64]: 238
Assign rand_sets[65]: 67  LLC: 2048
rand_sets[65]: 67
Assign rand_sets[66]: 1912  LLC: 2048
rand_sets[66]: 1912
Assign rand_sets[67]: 1613  LLC: 2048
rand_sets[67]: 1613
Assign rand_sets[68]: 1293  LLC: 2048
rand_sets[68]: 1293
Assign rand_sets[69]: 1018  LLC: 2048
rand_sets[69]: 1018
Assign rand_sets[70]: 1982  LLC: 2048
rand_sets[70]: 1982
Assign rand_sets[71]: 1702  LLC: 2048
rand_sets[71]: 1702
Assign rand_sets[72]: 1498  LLC: 2048
rand_sets[72]: 1498
Assign rand_sets[73]: 228  LLC: 2048
rand_sets[73]: 228
Assign rand_sets[74]: 1414  LLC: 2048
rand_sets[74]: 1414
Assign rand_sets[75]: 1166  LLC: 2048
rand_sets[75]: 1166
Assign rand_sets[76]: 732  LLC: 2048
rand_sets[76]: 732
Assign rand_sets[77]: 297  LLC: 2048
rand_sets[77]: 297
Assign rand_sets[78]: 1133  LLC: 2048
rand_sets[78]: 1133
Assign rand_sets[79]: 846  LLC: 2048
rand_sets[79]: 846
Assign rand_sets[80]: 767  LLC: 2048
rand_sets[80]: 767
Assign rand_sets[81]: 1878  LLC: 2048
rand_sets[81]: 1878
Assign rand_sets[82]: 993  LLC: 2048
rand_sets[82]: 993
Assign rand_sets[83]: 1392  LLC: 2048
rand_sets[83]: 1392
Assign rand_sets[84]: 1568  LLC: 2048
rand_sets[84]: 1568
Assign rand_sets[85]: 1787  LLC: 2048
rand_sets[85]: 1787
Assign rand_sets[86]: 399  LLC: 2048
rand_sets[86]: 399
Assign rand_sets[87]: 1201  LLC: 2048
rand_sets[87]: 1201
Assign rand_sets[88]: 856  LLC: 2048
rand_sets[88]: 856
Assign rand_sets[89]: 773  LLC: 2048
rand_sets[89]: 773
Assign rand_sets[90]: 1680  LLC: 2048
rand_sets[90]: 1680
Assign rand_sets[91]: 1477  LLC: 2048
rand_sets[91]: 1477
Assign rand_sets[92]: 9  LLC: 2048
rand_sets[92]: 9
Assign rand_sets[93]: 1500  LLC: 2048
rand_sets[93]: 1500
Assign rand_sets[94]: 851  LLC: 2048
rand_sets[94]: 851
Assign rand_sets[95]: 973  LLC: 2048
rand_sets[95]: 973
Assign rand_sets[96]: 938  LLC: 2048
rand_sets[96]: 938
Assign rand_sets[97]: 1851  LLC: 2048
rand_sets[97]: 1851
Assign rand_sets[98]: 1608  LLC: 2048
rand_sets[98]: 1608
Assign rand_sets[99]: 1945  LLC: 2048
Assign rand_sets[99]: 1106  LLC: 2048
rand_sets[99]: 1106
Assign rand_sets[100]: 979  LLC: 2048
rand_sets[100]: 979
Assign rand_sets[101]: 338  LLC: 2048
rand_sets[101]: 338
Assign rand_sets[102]: 1693  LLC: 2048
rand_sets[102]: 1693
Assign rand_sets[103]: 6  LLC: 2048
rand_sets[103]: 6
Assign rand_sets[104]: 671  LLC: 2048
rand_sets[104]: 671
Assign rand_sets[105]: 490  LLC: 2048
rand_sets[105]: 490
Assign rand_sets[106]: 1461  LLC: 2048
rand_sets[106]: 1461
Assign rand_sets[107]: 1730  LLC: 2048
rand_sets[107]: 1730
Assign rand_sets[108]: 1030  LLC: 2048
rand_sets[108]: 1030
Assign rand_sets[109]: 19  LLC: 2048
rand_sets[109]: 19
Assign rand_sets[110]: 920  LLC: 2048
Assign rand_sets[110]: 329  LLC: 2048
rand_sets[110]: 329
Assign rand_sets[111]: 1714  LLC: 2048
rand_sets[111]: 1714
Assign rand_sets[112]: 1  LLC: 2048
rand_sets[112]: 1
Assign rand_sets[113]: 1822  LLC: 2048
rand_sets[113]: 1822
Assign rand_sets[114]: 172  LLC: 2048
rand_sets[114]: 172
Assign rand_sets[115]: 1586  LLC: 2048
rand_sets[115]: 1586
Assign rand_sets[116]: 648  LLC: 2048
rand_sets[116]: 648
Assign rand_sets[117]: 1329  LLC: 2048
rand_sets[117]: 1329
Assign rand_sets[118]: 668  LLC: 2048
rand_sets[118]: 668
Assign rand_sets[119]: 1874  LLC: 2048
rand_sets[119]: 1874
Assign rand_sets[120]: 70  LLC: 2048
rand_sets[120]: 70
Assign rand_sets[121]: 661  LLC: 2048
rand_sets[121]: 661
Assign rand_sets[122]: 1649  LLC: 2048
rand_sets[122]: 1649
Assign rand_sets[123]: 1590  LLC: 2048
rand_sets[123]: 1590
Assign rand_sets[124]: 911  LLC: 2048
rand_sets[124]: 911
Assign rand_sets[125]: 1367  LLC: 2048
rand_sets[125]: 1367
Assign rand_sets[126]: 1782  LLC: 2048
rand_sets[126]: 1782
Assign rand_sets[127]: 569  LLC: 2048
rand_sets[127]: 569
Assign rand_sets[128]: 1309  LLC: 2048
rand_sets[128]: 1309
Assign rand_sets[129]: 534  LLC: 2048
rand_sets[129]: 534
Assign rand_sets[130]: 1274  LLC: 2048
rand_sets[130]: 1274
Assign rand_sets[131]: 904  LLC: 2048
rand_sets[131]: 904
Assign rand_sets[132]: 1908  LLC: 2048
rand_sets[132]: 1908
Assign rand_sets[133]: 245  LLC: 2048
rand_sets[133]: 245
Assign rand_sets[134]: 1688  LLC: 2048
rand_sets[134]: 1688
Assign rand_sets[135]: 1660  LLC: 2048
rand_sets[135]: 1660
Assign rand_sets[136]: 1303  LLC: 2048
rand_sets[136]: 1303
Assign rand_sets[137]: 1628  LLC: 2048
rand_sets[137]: 1628
Assign rand_sets[138]: 1857  LLC: 2048
rand_sets[138]: 1857
Assign rand_sets[139]: 187  LLC: 2048
rand_sets[139]: 187
Assign rand_sets[140]: 1389  LLC: 2048
rand_sets[140]: 1389
Assign rand_sets[141]: 881  LLC: 2048
rand_sets[141]: 881
Assign rand_sets[142]: 1166  LLC: 2048
Assign rand_sets[142]: 1039  LLC: 2048
rand_sets[142]: 1039
Assign rand_sets[143]: 1136  LLC: 2048
rand_sets[143]: 1136
Assign rand_sets[144]: 601  LLC: 2048
rand_sets[144]: 601
Assign rand_sets[145]: 967  LLC: 2048
rand_sets[145]: 967
Assign rand_sets[146]: 769  LLC: 2048
rand_sets[146]: 769
Assign rand_sets[147]: 283  LLC: 2048
rand_sets[147]: 283
Assign rand_sets[148]: 559  LLC: 2048
rand_sets[148]: 559
Assign rand_sets[149]: 1075  LLC: 2048
rand_sets[149]: 1075
Assign rand_sets[150]: 829  LLC: 2048
rand_sets[150]: 829
Assign rand_sets[151]: 1681  LLC: 2048
rand_sets[151]: 1681
Assign rand_sets[152]: 1728  LLC: 2048
rand_sets[152]: 1728
Assign rand_sets[153]: 541  LLC: 2048
rand_sets[153]: 541
Assign rand_sets[154]: 421  LLC: 2048
rand_sets[154]: 421
Assign rand_sets[155]: 1037  LLC: 2048
rand_sets[155]: 1037
Assign rand_sets[156]: 13  LLC: 2048
rand_sets[156]: 13
Assign rand_sets[157]: 1707  LLC: 2048
rand_sets[157]: 1707
Assign rand_sets[158]: 1075  LLC: 2048
Assign rand_sets[158]: 1933  LLC: 2048
rand_sets[158]: 1933
Assign rand_sets[159]: 1406  LLC: 2048
rand_sets[159]: 1406
Assign rand_sets[160]: 94  LLC: 2048
rand_sets[160]: 94
Assign rand_sets[161]: 1423  LLC: 2048
rand_sets[161]: 1423
Assign rand_sets[162]: 1854  LLC: 2048
rand_sets[162]: 1854
Assign rand_sets[163]: 230  LLC: 2048
rand_sets[163]: 230
Assign rand_sets[164]: 104  LLC: 2048
rand_sets[164]: 104
Assign rand_sets[165]: 1652  LLC: 2048
rand_sets[165]: 1652
Assign rand_sets[166]: 1446  LLC: 2048
rand_sets[166]: 1446
Assign rand_sets[167]: 1338  LLC: 2048
rand_sets[167]: 1338
Assign rand_sets[168]: 177  LLC: 2048
rand_sets[168]: 177
Assign rand_sets[169]: 195  LLC: 2048
rand_sets[169]: 195
Assign rand_sets[170]: 1171  LLC: 2048
rand_sets[170]: 1171
Assign rand_sets[171]: 1297  LLC: 2048
rand_sets[171]: 1297
Assign rand_sets[172]: 1704  LLC: 2048
rand_sets[172]: 1704
Assign rand_sets[173]: 100  LLC: 2048
rand_sets[173]: 100
Assign rand_sets[174]: 711  LLC: 2048
rand_sets[174]: 711
Assign rand_sets[175]: 1243  LLC: 2048
rand_sets[175]: 1243
Assign rand_sets[176]: 1738  LLC: 2048
rand_sets[176]: 1738
Assign rand_sets[177]: 1504  LLC: 2048
rand_sets[177]: 1504
Assign rand_sets[178]: 96  LLC: 2048
rand_sets[178]: 96
Assign rand_sets[179]: 1249  LLC: 2048
rand_sets[179]: 1249
Assign rand_sets[180]: 1267  LLC: 2048
rand_sets[180]: 1267
Assign rand_sets[181]: 1727  LLC: 2048
rand_sets[181]: 1727
Assign rand_sets[182]: 1545  LLC: 2048
rand_sets[182]: 1545
Assign rand_sets[183]: 1792  LLC: 2048
rand_sets[183]: 1792
Assign rand_sets[184]: 1383  LLC: 2048
rand_sets[184]: 1383
Assign rand_sets[185]: 1954  LLC: 2048
rand_sets[185]: 1954
Assign rand_sets[186]: 739  LLC: 2048
rand_sets[186]: 739
Assign rand_sets[187]: 1061  LLC: 2048
rand_sets[187]: 1061
Assign rand_sets[188]: 672  LLC: 2048
rand_sets[188]: 672
Assign rand_sets[189]: 1057  LLC: 2048
rand_sets[189]: 1057
Assign rand_sets[190]: 1329  LLC: 2048
Assign rand_sets[190]: 1415  LLC: 2048
rand_sets[190]: 1415
Assign rand_sets[191]: 981  LLC: 2048
rand_sets[191]: 981
Assign rand_sets[192]: 98  LLC: 2048
rand_sets[192]: 98
Assign rand_sets[193]: 453  LLC: 2048
rand_sets[193]: 453
Assign rand_sets[194]: 1448  LLC: 2048
rand_sets[194]: 1448
Assign rand_sets[195]: 79  LLC: 2048
rand_sets[195]: 79
Assign rand_sets[196]: 126  LLC: 2048
rand_sets[196]: 126
Assign rand_sets[197]: 1582  LLC: 2048
rand_sets[197]: 1582
Assign rand_sets[198]: 1289  LLC: 2048
rand_sets[198]: 1289
Assign rand_sets[199]: 875  LLC: 2048
rand_sets[199]: 875
Assign rand_sets[200]: 404  LLC: 2048
rand_sets[200]: 404
Assign rand_sets[201]: 415  LLC: 2048
rand_sets[201]: 415
Assign rand_sets[202]: 1712  LLC: 2048
rand_sets[202]: 1712
Assign rand_sets[203]: 1389  LLC: 2048
Assign rand_sets[203]: 169  LLC: 2048
rand_sets[203]: 169
Assign rand_sets[204]: 158  LLC: 2048
rand_sets[204]: 158
Assign rand_sets[205]: 90  LLC: 2048
rand_sets[205]: 90
Assign rand_sets[206]: 1291  LLC: 2048
rand_sets[206]: 1291
Assign rand_sets[207]: 838  LLC: 2048
rand_sets[207]: 838
Assign rand_sets[208]: 1904  LLC: 2048
rand_sets[208]: 1904
Assign rand_sets[209]: 640  LLC: 2048
rand_sets[209]: 640
Assign rand_sets[210]: 1462  LLC: 2048
rand_sets[210]: 1462
Assign rand_sets[211]: 1487  LLC: 2048
rand_sets[211]: 1487
Assign rand_sets[212]: 1863  LLC: 2048
rand_sets[212]: 1863
Assign rand_sets[213]: 1036  LLC: 2048
rand_sets[213]: 1036
Assign rand_sets[214]: 1702  LLC: 2048
Assign rand_sets[214]: 933  LLC: 2048
rand_sets[214]: 933
Assign rand_sets[215]: 554  LLC: 2048
rand_sets[215]: 554
Assign rand_sets[216]: 1496  LLC: 2048
rand_sets[216]: 1496
Assign rand_sets[217]: 1708  LLC: 2048
rand_sets[217]: 1708
Assign rand_sets[218]: 1275  LLC: 2048
Assign rand_sets[218]: 416  LLC: 2048
rand_sets[218]: 416
Assign rand_sets[219]: 491  LLC: 2048
rand_sets[219]: 491
Assign rand_sets[220]: 183  LLC: 2048
rand_sets[220]: 183
Assign rand_sets[221]: 1657  LLC: 2048
rand_sets[221]: 1657
Assign rand_sets[222]: 1060  LLC: 2048
rand_sets[222]: 1060
Assign rand_sets[223]: 626  LLC: 2048
rand_sets[223]: 626
Assign rand_sets[224]: 1315  LLC: 2048
rand_sets[224]: 1315
Assign rand_sets[225]: 1682  LLC: 2048
rand_sets[225]: 1682
Assign rand_sets[226]: 1352  LLC: 2048
rand_sets[226]: 1352
Assign rand_sets[227]: 1152  LLC: 2048
rand_sets[227]: 1152
Assign rand_sets[228]: 965  LLC: 2048
rand_sets[228]: 965
Assign rand_sets[229]: 1190  LLC: 2048
rand_sets[229]: 1190
Assign rand_sets[230]: 1191  LLC: 2048
rand_sets[230]: 1191
Assign rand_sets[231]: 645  LLC: 2048
rand_sets[231]: 645
Assign rand_sets[232]: 695  LLC: 2048
rand_sets[232]: 695
Assign rand_sets[233]: 1495  LLC: 2048
rand_sets[233]: 1495
Assign rand_sets[234]: 1932  LLC: 2048
rand_sets[234]: 1932
Assign rand_sets[235]: 656  LLC: 2048
rand_sets[235]: 656
Assign rand_sets[236]: 1508  LLC: 2048
rand_sets[236]: 1508
Assign rand_sets[237]: 939  LLC: 2048
rand_sets[237]: 939
Assign rand_sets[238]: 355  LLC: 2048
rand_sets[238]: 355
Assign rand_sets[239]: 1092  LLC: 2048
rand_sets[239]: 1092
Assign rand_sets[240]: 850  LLC: 2048
rand_sets[240]: 850
Assign rand_sets[241]: 102  LLC: 2048
rand_sets[241]: 102
Assign rand_sets[242]: 1763  LLC: 2048
rand_sets[242]: 1763
Assign rand_sets[243]: 668  LLC: 2048
Assign rand_sets[243]: 51  LLC: 2048
rand_sets[243]: 51
Assign rand_sets[244]: 1317  LLC: 2048
rand_sets[244]: 1317
Assign rand_sets[245]: 2041  LLC: 2048
rand_sets[245]: 2041
Assign rand_sets[246]: 1374  LLC: 2048
rand_sets[246]: 1374
Assign rand_sets[247]: 682  LLC: 2048
rand_sets[247]: 682
Assign rand_sets[248]: 1466  LLC: 2048
rand_sets[248]: 1466
Assign rand_sets[249]: 1139  LLC: 2048
rand_sets[249]: 1139
Assign rand_sets[250]: 1632  LLC: 2048
rand_sets[250]: 1632
Assign rand_sets[251]: 1117  LLC: 2048
rand_sets[251]: 1117
Assign rand_sets[252]: 1611  LLC: 2048
rand_sets[252]: 1611
Assign rand_sets[253]: 1905  LLC: 2048
rand_sets[253]: 1905
Assign rand_sets[254]: 1662  LLC: 2048
Assign rand_sets[254]: 446  LLC: 2048
rand_sets[254]: 446
Assign rand_sets[255]: 1705  LLC: 2048
rand_sets[255]: 1705
Heartbeat CPU 0 instructions: 10000001 cycles: 3125980 heartbeat IPC: 3.199 cumulative IPC: 3.199 (Simulation time: 0 hr 0 min 20 sec) 
Heartbeat CPU 0 instructions: 20000002 cycles: 6251599 heartbeat IPC: 3.19937 cumulative IPC: 3.19918 (Simulation time: 0 hr 0 min 40 sec) 
Heartbeat CPU 0 instructions: 30000001 cycles: 9377200 heartbeat IPC: 3.19938 cumulative IPC: 3.19925 (Simulation time: 0 hr 1 min 0 sec) 
Heartbeat CPU 0 instructions: 40000001 cycles: 12502785 heartbeat IPC: 3.1994 cumulative IPC: 3.19929 (Simulation time: 0 hr 1 min 21 sec) 
Heartbeat CPU 0 instructions: 50000002 cycles: 15628404 heartbeat IPC: 3.19937 cumulative IPC: 3.1993 (Simulation time: 0 hr 1 min 41 sec) 
Heartbeat CPU 0 instructions: 60000001 cycles: 19044324 heartbeat IPC: 2.92747 cumulative IPC: 3.15055 (Simulation time: 0 hr 2 min 2 sec) 
Heartbeat CPU 0 instructions: 70000001 cycles: 22188765 heartbeat IPC: 3.18022 cumulative IPC: 3.15475 (Simulation time: 0 hr 2 min 22 sec) 
Heartbeat CPU 0 instructions: 80000000 cycles: 25333227 heartbeat IPC: 3.18019 cumulative IPC: 3.15791 (Simulation time: 0 hr 2 min 42 sec) 
Heartbeat CPU 0 instructions: 90000000 cycles: 28477677 heartbeat IPC: 3.18021 cumulative IPC: 3.16037 (Simulation time: 0 hr 3 min 3 sec) 
Heartbeat CPU 0 instructions: 100000001 cycles: 31622130 heartbeat IPC: 3.1802 cumulative IPC: 3.16234 (Simulation time: 0 hr 3 min 23 sec) 

Warmup complete CPU 0 instructions: 100000001 cycles: 31622130 (Simulation time: 0 hr 3 min 23 sec) 

Heartbeat CPU 0 instructions: 110000000 cycles: 41187063 heartbeat IPC: 1.04549 cumulative IPC: 1.04549 (Simulation time: 0 hr 3 min 45 sec) 
Heartbeat CPU 0 instructions: 120000002 cycles: 50755240 heartbeat IPC: 1.04513 cumulative IPC: 1.04531 (Simulation time: 0 hr 4 min 8 sec) 
Heartbeat CPU 0 instructions: 130000003 cycles: 59634364 heartbeat IPC: 1.12624 cumulative IPC: 1.07096 (Simulation time: 0 hr 4 min 31 sec) 
Heartbeat CPU 0 instructions: 140000003 cycles: 67534340 heartbeat IPC: 1.26583 cumulative IPC: 1.11383 (Simulation time: 0 hr 4 min 52 sec) 
Heartbeat CPU 0 instructions: 150000003 cycles: 75431484 heartbeat IPC: 1.26628 cumulative IPC: 1.14131 (Simulation time: 0 hr 5 min 13 sec) 
Heartbeat CPU 0 instructions: 160000002 cycles: 83314718 heartbeat IPC: 1.26851 cumulative IPC: 1.16071 (Simulation time: 0 hr 5 min 34 sec) 
Heartbeat CPU 0 instructions: 170000002 cycles: 91169730 heartbeat IPC: 1.27307 cumulative IPC: 1.17553 (Simulation time: 0 hr 5 min 55 sec) 
Heartbeat CPU 0 instructions: 180000001 cycles: 99050523 heartbeat IPC: 1.26891 cumulative IPC: 1.18644 (Simulation time: 0 hr 6 min 17 sec) 
Heartbeat CPU 0 instructions: 190000001 cycles: 106959412 heartbeat IPC: 1.2644 cumulative IPC: 1.19463 (Simulation time: 0 hr 6 min 38 sec) 
Heartbeat CPU 0 instructions: 200000000 cycles: 115911030 heartbeat IPC: 1.11712 cumulative IPC: 1.1864 (Simulation time: 0 hr 7 min 1 sec) 
Heartbeat CPU 0 instructions: 210000002 cycles: 127722036 heartbeat IPC: 0.846668 cumulative IPC: 1.14464 (Simulation time: 0 hr 7 min 31 sec) 
Heartbeat CPU 0 instructions: 220000000 cycles: 139554330 heartbeat IPC: 0.845145 cumulative IPC: 1.11181 (Simulation time: 0 hr 8 min 0 sec) 
Heartbeat CPU 0 instructions: 230000003 cycles: 151380091 heartbeat IPC: 0.845612 cumulative IPC: 1.08552 (Simulation time: 0 hr 8 min 30 sec) 
Heartbeat CPU 0 instructions: 240000003 cycles: 174629014 heartbeat IPC: 0.430127 cumulative IPC: 0.978974 (Simulation time: 0 hr 9 min 11 sec) 
Heartbeat CPU 0 instructions: 250000000 cycles: 199110554 heartbeat IPC: 0.408471 cumulative IPC: 0.895584 (Simulation time: 0 hr 9 min 52 sec) 
Heartbeat CPU 0 instructions: 260000001 cycles: 208936430 heartbeat IPC: 1.01772 cumulative IPC: 0.902353 (Simulation time: 0 hr 10 min 15 sec) 
Heartbeat CPU 0 instructions: 270000001 cycles: 218822207 heartbeat IPC: 1.01155 cumulative IPC: 0.908119 (Simulation time: 0 hr 10 min 38 sec) 
Heartbeat CPU 0 instructions: 280000000 cycles: 228847272 heartbeat IPC: 0.9975 cumulative IPC: 0.912663 (Simulation time: 0 hr 11 min 1 sec) 
Heartbeat CPU 0 instructions: 290000002 cycles: 238853435 heartbeat IPC: 0.999384 cumulative IPC: 0.91685 (Simulation time: 0 hr 11 min 23 sec) 
Heartbeat CPU 0 instructions: 300000002 cycles: 248869626 heartbeat IPC: 0.998384 cumulative IPC: 0.920609 (Simulation time: 0 hr 11 min 46 sec) 
Heartbeat CPU 0 instructions: 310000003 cycles: 258875957 heartbeat IPC: 0.999367 cumulative IPC: 0.924077 (Simulation time: 0 hr 12 min 9 sec) 
Heartbeat CPU 0 instructions: 320000002 cycles: 268886936 heartbeat IPC: 0.998903 cumulative IPC: 0.927234 (Simulation time: 0 hr 12 min 31 sec) 
Heartbeat CPU 0 instructions: 330000000 cycles: 277991635 heartbeat IPC: 1.09833 cumulative IPC: 0.933557 (Simulation time: 0 hr 12 min 55 sec) 
Heartbeat CPU 0 instructions: 340000000 cycles: 286819264 heartbeat IPC: 1.13281 cumulative IPC: 0.940449 (Simulation time: 0 hr 13 min 18 sec) 
Heartbeat CPU 0 instructions: 350000003 cycles: 295630254 heartbeat IPC: 1.13495 cumulative IPC: 0.946941 (Simulation time: 0 hr 13 min 41 sec) 
Heartbeat CPU 0 instructions: 360000003 cycles: 304416521 heartbeat IPC: 1.13814 cumulative IPC: 0.953099 (Simulation time: 0 hr 14 min 3 sec) 
Heartbeat CPU 0 instructions: 370000002 cycles: 313290131 heartbeat IPC: 1.12694 cumulative IPC: 0.958575 (Simulation time: 0 hr 14 min 26 sec) 
Heartbeat CPU 0 instructions: 380000002 cycles: 322169001 heartbeat IPC: 1.12627 cumulative IPC: 0.9637 (Simulation time: 0 hr 14 min 48 sec) 
Heartbeat CPU 0 instructions: 390000001 cycles: 330991120 heartbeat IPC: 1.13351 cumulative IPC: 0.968704 (Simulation time: 0 hr 15 min 11 sec) 
Heartbeat CPU 0 instructions: 400000000 cycles: 339485097 heartbeat IPC: 1.1773 cumulative IPC: 0.97446 (Simulation time: 0 hr 15 min 33 sec) 
Heartbeat CPU 0 instructions: 410000003 cycles: 348020502 heartbeat IPC: 1.17159 cumulative IPC: 0.979778 (Simulation time: 0 hr 15 min 55 sec) 
Heartbeat CPU 0 instructions: 420000001 cycles: 356691946 heartbeat IPC: 1.15321 cumulative IPC: 0.984404 (Simulation time: 0 hr 16 min 18 sec) 
Heartbeat CPU 0 instructions: 430000001 cycles: 365567667 heartbeat IPC: 1.12667 cumulative IPC: 0.988185 (Simulation time: 0 hr 16 min 40 sec) 
Heartbeat CPU 0 instructions: 440000000 cycles: 374416024 heartbeat IPC: 1.13015 cumulative IPC: 0.99185 (Simulation time: 0 hr 17 min 2 sec) 
Heartbeat CPU 0 instructions: 450000003 cycles: 383268652 heartbeat IPC: 1.12961 cumulative IPC: 0.995318 (Simulation time: 0 hr 17 min 25 sec) 
Heartbeat CPU 0 instructions: 460000003 cycles: 392114129 heartbeat IPC: 1.13052 cumulative IPC: 0.998635 (Simulation time: 0 hr 17 min 47 sec) 
Heartbeat CPU 0 instructions: 470000002 cycles: 400829046 heartbeat IPC: 1.14746 cumulative IPC: 1.00215 (Simulation time: 0 hr 18 min 10 sec) 
Heartbeat CPU 0 instructions: 480000002 cycles: 408727592 heartbeat IPC: 1.26606 cumulative IPC: 1.00768 (Simulation time: 0 hr 18 min 32 sec) 
Heartbeat CPU 0 instructions: 490000001 cycles: 416635562 heartbeat IPC: 1.26455 cumulative IPC: 1.01295 (Simulation time: 0 hr 18 min 53 sec) 
Heartbeat CPU 0 instructions: 500000001 cycles: 424560348 heartbeat IPC: 1.26186 cumulative IPC: 1.01797 (Simulation time: 0 hr 19 min 15 sec) 
Heartbeat CPU 0 instructions: 510000000 cycles: 432470016 heartbeat IPC: 1.26428 cumulative IPC: 1.02283 (Simulation time: 0 hr 19 min 36 sec) 
Heartbeat CPU 0 instructions: 520000001 cycles: 440367250 heartbeat IPC: 1.26627 cumulative IPC: 1.02754 (Simulation time: 0 hr 19 min 58 sec) 
Heartbeat CPU 0 instructions: 530000002 cycles: 448279028 heartbeat IPC: 1.26394 cumulative IPC: 1.03202 (Simulation time: 0 hr 20 min 20 sec) 
Heartbeat CPU 0 instructions: 540000002 cycles: 456356308 heartbeat IPC: 1.23804 cumulative IPC: 1.03594 (Simulation time: 0 hr 20 min 42 sec) 
Heartbeat CPU 0 instructions: 550000000 cycles: 501617650 heartbeat IPC: 0.220939 cumulative IPC: 0.957456 (Simulation time: 0 hr 21 min 44 sec) 
Heartbeat CPU 0 instructions: 560000003 cycles: 539812839 heartbeat IPC: 0.261813 cumulative IPC: 0.905172 (Simulation time: 0 hr 22 min 42 sec) 
Heartbeat CPU 0 instructions: 570000001 cycles: 551513904 heartbeat IPC: 0.854623 cumulative IPC: 0.904034 (Simulation time: 0 hr 23 min 11 sec) 
Heartbeat CPU 0 instructions: 580000001 cycles: 563217224 heartbeat IPC: 0.854458 cumulative IPC: 0.902943 (Simulation time: 0 hr 23 min 40 sec) 
Heartbeat CPU 0 instructions: 590000003 cycles: 574917869 heartbeat IPC: 0.854654 cumulative IPC: 0.901903 (Simulation time: 0 hr 24 min 10 sec) 
Heartbeat CPU 0 instructions: 600000002 cycles: 586104082 heartbeat IPC: 0.893957 cumulative IPC: 0.901743 (Simulation time: 0 hr 24 min 38 sec) 
Finished CPU 0 instructions: 500000001 cycles: 554481952 cumulative IPC: 0.901743 (Simulation time: 0 hr 24 min 38 sec) 

ChampSim completed all CPUs

Region of Interest Statistics

CPU 0 cumulative IPC: 0.901743 instructions: 500000001 cycles: 554481952
L1D TOTAL     ACCESS:   64861692  HIT:   52905885  MISS:   11955807
L1D LOAD      ACCESS:   41946486  HIT:   37868096  MISS:    4078390
L1D RFO       ACCESS:   17955456  HIT:   14212410  MISS:    3743046
L1D PREFETCH  ACCESS:    4959750  HIT:     825379  MISS:    4134371
L1D WRITEBACK ACCESS:          0  HIT:          0  MISS:          0
L1D PREFETCH  REQUESTED:   12107651  ISSUED:   12107651  USEFUL:    5065532  USELESS:       7624  LATE:          0
L1D AVERAGE MISS LATENCY: 271.673 cycles
L1D AVERAGE LOAD MISS LATENCY: 159.997 cycles
L1D AVERAGE RFO MISS LATENCY: 383.989 cycles
L1D AVERAGE PREFETCH MISS LATENCY: 280.151 cycles
L1D AVERAGE WRITEBACK MISS LATENCY: -nan cycles
L1I TOTAL     ACCESS:   88722739  HIT:   88722629  MISS:        110
L1I LOAD      ACCESS:   88722739  HIT:   88722629  MISS:        110
L1I RFO       ACCESS:          0  HIT:          0  MISS:          0
L1I PREFETCH  ACCESS:          0  HIT:          0  MISS:          0
L1I WRITEBACK ACCESS:          0  HIT:          0  MISS:          0
L1I PREFETCH  REQUESTED:          0  ISSUED:          0  USEFUL:          0  USELESS:          0  LATE:          0
L1I AVERAGE MISS LATENCY: 255.555 cycles
L1I AVERAGE LOAD MISS LATENCY: 255.555 cycles
L1I AVERAGE RFO MISS LATENCY: -nan cycles
L1I AVERAGE PREFETCH MISS LATENCY: -nan cycles
L1I AVERAGE WRITEBACK MISS LATENCY: -nan cycles
L2C TOTAL     ACCESS:   19820773  HIT:    5432003  MISS:   14388770
L2C LOAD      ACCESS:    3030412  HIT:     523602  MISS:    2506810
L2C RFO       ACCESS:    3743012  HIT:        201  MISS:    3742811
L2C PREFETCH  ACCESS:    8344176  HIT:     280092  MISS:    8064084
L2C WRITEBACK ACCESS:    4703173  HIT:    4628108  MISS:      75065
L2C PREFETCH  REQUESTED:          0  ISSUED:          0  USEFUL:     603327  USELESS:    8846862  LATE:          0
L2C AVERAGE MISS LATENCY: 301.982 cycles
L2C AVERAGE LOAD MISS LATENCY: 238.863 cycles
L2C AVERAGE RFO MISS LATENCY: 362.045 cycles
L2C AVERAGE PREFETCH MISS LATENCY: 296.537 cycles
L2C AVERAGE WRITEBACK MISS LATENCY: 0 cycles
LLC TOTAL     ACCESS:   19016255  HIT:     208766  MISS:   18807489
LLC LOAD      ACCESS:    2505777  HIT:      13712  MISS:    2492065
LLC RFO       ACCESS:    3742783  HIT:      32776  MISS:    3710007
LLC PREFETCH  ACCESS:    8065209  HIT:     101738  MISS:    7963471
LLC WRITEBACK ACCESS:    4702486  HIT:      60540  MISS:    4641946
LLC PREFETCH  REQUESTED:          0  ISSUED:          0  USEFUL:        995  USELESS:    9347885  LATE:          0
LLC AVERAGE MISS LATENCY: 203.277 cycles
LLC AVERAGE LOAD MISS LATENCY: 209.74 cycles
LLC AVERAGE RFO MISS LATENCY: 318.672 cycles
LLC AVERAGE PREFETCH MISS LATENCY: 265.985 cycles
LLC AVERAGE WRITEBACK MISS LATENCY: 0 cycles
Major fault: 0 Minor fault: 92218
L1D WB Stall Cycle: 13830059
Filter table begin
 ┌────────────────────┬─────────────┐
 | Region             | Offset      |
 ├────────────────────┼─────────────┤
 | 0x000000028e837c8a | 32          |
 └────────────────────┴─────────────┘
Filter table end
Accumulation table begin
 ┌────────────────────┬─────────────┬──────────────────────────────────────────────────────────────────────────────────────────────────────────────────────────────────┐
 | Region             | Offset      | Pattern                                                                                                                          |
 ├────────────────────┼─────────────┼──────────────────────────────────────────────────────────────────────────────────────────────────────────────────────────────────┤
 | 0x0000000a2da637fb | 8           | 0 0 0 0 0 0 0 0 1 1 1 0 0 0 0 0 0 0 0 0 0 0 0 0 0 0 0 0 0 0 0 0 0 0 0 0 0 0 0 0 1 1 1 0 0 0 0 0 0 0 0 0 0 0 0 0 0 0 0 0 0 0 0 0  |
 ├────────────────────┼─────────────┼──────────────────────────────────────────────────────────────────────────────────────────────────────────────────────────────────┤
 | 0x00000002e448da2b | 8           | 0 0 0 0 0 0 0 0 1 1 1 0 0 0 0 0 0 0 0 0 0 0 0 0 0 0 0 0 0 0 0 0 0 0 0 0 0 0 0 0 1 1 1 0 0 0 0 0 0 0 0 0 0 0 0 0 0 0 0 0 0 0 0 0  |
 ├────────────────────┼─────────────┼──────────────────────────────────────────────────────────────────────────────────────────────────────────────────────────────────┤
 | 0x0000000a2da637f8 | 8           | 0 0 0 0 0 0 0 0 1 1 1 0 0 0 0 0 0 0 0 0 0 0 0 0 0 0 0 0 0 0 0 0 0 0 0 0 0 0 0 0 1 1 1 0 0 0 0 0 0 0 0 0 0 0 0 0 0 0 0 0 0 0 0 0  |
 ├────────────────────┼─────────────┼──────────────────────────────────────────────────────────────────────────────────────────────────────────────────────────────────┤
 | 0x00000002e448da28 | 8           | 0 0 0 0 0 0 0 0 1 1 1 0 0 0 0 0 0 0 0 0 0 0 0 0 0 0 0 0 0 0 0 0 0 0 0 0 0 0 0 0 1 1 1 0 0 0 0 0 0 0 0 0 0 0 0 0 0 0 0 0 0 0 0 0  |
 ├────────────────────┼─────────────┼──────────────────────────────────────────────────────────────────────────────────────────────────────────────────────────────────┤
 | 0x000000028e837c89 | 15          | 0 0 0 0 0 0 0 0 0 0 0 0 0 0 0 1 0 0 0 0 0 0 0 1 0 0 0 0 0 0 0 0 0 0 0 0 0 0 0 0 0 0 0 0 0 0 0 0 0 0 0 0 0 0 0 0 0 0 0 0 0 0 0 0  |
 ├────────────────────┼─────────────┼──────────────────────────────────────────────────────────────────────────────────────────────────────────────────────────────────┤
 | 0x00000002e448da27 | 8           | 0 0 0 0 0 0 0 0 1 1 1 0 0 0 0 0 0 0 0 0 0 0 0 0 0 0 0 0 0 0 0 0 0 0 0 0 0 0 0 0 1 1 1 0 0 0 0 0 0 0 0 0 0 0 0 0 0 0 0 0 0 0 0 0  |
 ├────────────────────┼─────────────┼──────────────────────────────────────────────────────────────────────────────────────────────────────────────────────────────────┤
 | 0x0000000a2da637fa | 8           | 0 0 0 0 0 0 0 0 1 1 1 0 0 0 0 0 0 0 0 0 0 0 0 0 0 0 0 0 0 0 0 0 0 0 0 0 0 0 0 0 1 1 1 0 0 0 0 0 0 0 0 0 0 0 0 0 0 0 0 0 0 0 0 0  |
 ├────────────────────┼─────────────┼──────────────────────────────────────────────────────────────────────────────────────────────────────────────────────────────────┤
 | 0x0000000a2da637fc | 8           | 0 0 0 0 0 0 0 0 1 1 1 0 0 0 0 0 0 0 0 0 0 0 0 0 0 0 0 0 0 0 0 0 0 0 0 0 0 0 0 0 0 0 0 0 0 0 0 0 0 0 0 0 0 0 0 0 0 0 0 0 0 0 0 0  |
 ├────────────────────┼─────────────┼──────────────────────────────────────────────────────────────────────────────────────────────────────────────────────────────────┤
 | 0x00000002e448da2a | 8           | 0 0 0 0 0 0 0 0 1 1 1 0 0 0 0 0 0 0 0 0 0 0 0 0 0 0 0 0 0 0 0 0 0 0 0 0 0 0 0 0 1 1 1 0 0 0 0 0 0 0 0 0 0 0 0 0 0 0 0 0 0 0 0 0  |
 ├────────────────────┼─────────────┼──────────────────────────────────────────────────────────────────────────────────────────────────────────────────────────────────┤
 | 0x00000006a50b37ae | 12          | 0 0 0 0 0 0 0 0 0 0 0 0 1 1 1 1 1 1 1 1 1 1 1 0 0 0 0 0 0 0 0 0 0 0 0 0 0 0 0 0 0 0 0 0 0 0 0 0 0 0 0 0 0 0 0 0 0 0 0 0 0 0 0 0  |
 ├────────────────────┼─────────────┼──────────────────────────────────────────────────────────────────────────────────────────────────────────────────────────────────┤
 | 0x0000000a2da637f9 | 8           | 0 0 0 0 0 0 0 0 1 1 1 0 0 0 0 0 0 0 0 0 0 0 0 0 0 0 0 0 0 0 0 0 0 0 0 0 0 0 0 0 1 1 1 0 0 0 0 0 0 0 0 0 0 0 0 0 0 0 0 0 0 0 0 0  |
 ├────────────────────┼─────────────┼──────────────────────────────────────────────────────────────────────────────────────────────────────────────────────────────────┤
 | 0x00000002e448da2c | 8           | 0 0 0 0 0 0 0 0 1 1 1 0 0 0 0 0 0 0 0 0 0 0 0 0 0 0 0 0 0 0 0 0 0 0 0 0 0 0 0 0 0 0 0 0 0 0 0 0 0 0 0 0 0 0 0 0 0 0 0 0 0 0 0 0  |
 └────────────────────┴─────────────┴──────────────────────────────────────────────────────────────────────────────────────────────────────────────────────────────────┘
Accumulation table end
Offset pattern table begin
 ┌────────────────────┬─────────────────────────────────────────────────────────────────────────────────────────────────────────────────────────────────────────────────────────────────────────────────────────┐
 | Key                | Pattern                                                                                                                                                                                 |
 ├────────────────────┼─────────────────────────────────────────────────────────────────────────────────────────────────────────────────────────────────────────────────────────────────────────────────────────┤
 | 0x0000000000000000 | 17 16 16 16 16 16 16 16 16 16 16 9 9 9 9 9 9 8 8 8 8 8 8 8 8 8 8 8 8 8 8 8 8 8 8 8 8 8 8 8 8 8 8 8 8 8 8 8 8 8 8 8 8 8 8 8 8 8 8 8 8 8 8 8                                              |
 ├────────────────────┼─────────────────────────────────────────────────────────────────────────────────────────────────────────────────────────────────────────────────────────────────────────────────────────┤
 | 0x0000000000000001 | 17 17 17 17 17 17 17 17 17 17 17 17 17 17 17 17 17 17 17 17 17 17 17 3 3 3 3 3 3 3 3 3 3 3 3 3 3 3 3 3 3 3 3 3 3 3 3 3 3 3 3 3 3 3 3 1 0 0 0 0 0 0 0 0                                  |
 ├────────────────────┼─────────────────────────────────────────────────────────────────────────────────────────────────────────────────────────────────────────────────────────────────────────────────────────┤
 | 0x0000000000000002 | 25 25 25 25 25 25 25 25 25 25 25 25 25 25 25 25 25 25 25 25 25 25 25 25 25 25 25 25 25 25 25 25 25 25 25 25 25 25 25 25 25 25 25 25 25 25 25 25 25 25 25 25 25 25 25 0 0 0 0 0 0 0 0 0  |
 ├────────────────────┼─────────────────────────────────────────────────────────────────────────────────────────────────────────────────────────────────────────────────────────────────────────────────────────┤
 | 0x0000000000000003 | 29 28 28 28 28 28 28 28 28 28 28 28 28 28 28 28 28 28 28 28 28 28 29 5 5 5 6 5 5 5 5 5 5 5 5 5 5 5 5 5 5 5 5 5 5 5 2 2 2 2 2 0 0 0 0 0 0 1 0 0 0 0 0 0                                  |
 ├────────────────────┼─────────────────────────────────────────────────────────────────────────────────────────────────────────────────────────────────────────────────────────────────────────────────────────┤
 | 0x0000000000000004 | 19 19 19 0 0 0 0 0 0 0 0 0 0 0 0 0 0 0 0 0 0 0 0 0 0 0 0 0 0 0 0 0 19 19 19 0 0 0 0 0 0 0 0 0 0 0 0 0 0 0 0 0 0 0 0 0 0 0 0 0 0 0 0 0                                                   |
 ├────────────────────┼─────────────────────────────────────────────────────────────────────────────────────────────────────────────────────────────────────────────────────────────────────────────────────────┤
 | 0x0000000000000005 | 16 14 14 14 16 14 14 14 14 14 14 14 14 14 14 14 14 14 14 14 14 14 14 2 2 2 2 2 2 2 2 2 2 2 2 2 2 2 2 2 2 2 2 2 2 2 2 2 2 2 2 0 0 0 0 0 0 0 0 0 0 0 0 0                                  |
 ├────────────────────┼─────────────────────────────────────────────────────────────────────────────────────────────────────────────────────────────────────────────────────────────────────────────────────────┤
 | 0x0000000000000006 | 25 25 25 17 17 17 17 17 17 17 17 17 17 17 17 17 17 17 17 17 17 17 17 17 17 17 17 17 17 17 17 17 25 25 25 17 17 17 17 17 17 17 17 17 17 17 17 17 17 17 15 0 0 0 0 0 0 0 0 0 0 0 0 0      |
 ├────────────────────┼─────────────────────────────────────────────────────────────────────────────────────────────────────────────────────────────────────────────────────────────────────────────────────────┤
 | 0x0000000000000007 | 21 21 1 1 1 1 1 1 1 1 1 1 1 1 1 1 1 1 1 1 1 1 1 0 0 0 0 0 0 0 0 0 0 0 0 0 0 0 0 0 0 0 0 0 0 0 0 0 0 0 0 0 0 0 0 0 0 0 0 0 0 0 0 0                                                       |
 ├────────────────────┼─────────────────────────────────────────────────────────────────────────────────────────────────────────────────────────────────────────────────────────────────────────────────────────┤
 | 0x0000000000000008 | 24 24 23 0 0 0 0 0 0 0 0 0 0 0 0 0 0 0 0 0 0 0 0 0 0 0 0 0 0 0 0 0 23 23 23 0 0 0 0 0 0 0 0 0 0 0 0 0 0 0 0 0 0 0 0 0 0 0 0 0 0 0 0 0                                                   |
 ├────────────────────┼─────────────────────────────────────────────────────────────────────────────────────────────────────────────────────────────────────────────────────────────────────────────────────────┤
 | 0x0000000000000009 | 22 22 21 21 21 21 21 21 21 21 21 21 21 21 21 21 21 21 21 21 21 21 1 0 0 0 0 0 0 0 0 0 0 0 0 0 0 0 0 0 0 0 0 0 0 0 0 0 0 0 0 0 0 0 0 0 0 0 0 0 0 0 0 0                                   |
 ├────────────────────┼─────────────────────────────────────────────────────────────────────────────────────────────────────────────────────────────────────────────────────────────────────────────────────────┤
 | 0x000000000000000a | 26 26 9 9 9 9 9 9 9 9 9 9 9 9 9 9 9 9 9 9 9 9 9 9 9 9 9 9 9 9 9 9 9 9 9 9 9 9 9 9 9 9 9 9 9 9 9 9 9 9 9 9 9 9 0 0 0 0 0 0 0 0 0 0                                                       |
 ├────────────────────┼─────────────────────────────────────────────────────────────────────────────────────────────────────────────────────────────────────────────────────────────────────────────────────────┤
 | 0x000000000000000b | 30 30 0 0 0 0 0 0 0 0 0 0 0 0 0 0 0 0 0 0 0 0 0 0 0 0 0 0 0 0 0 0 0 0 0 0 0 0 0 0 0 0 0 0 0 0 0 0 0 0 0 0 0 0 0 0 0 0 0 0 0 0 0 0                                                       |
 ├────────────────────┼─────────────────────────────────────────────────────────────────────────────────────────────────────────────────────────────────────────────────────────────────────────────────────────┤
 | 0x000000000000000c | 24 24 10 10 10 10 10 10 10 10 10 10 10 10 10 10 10 10 10 10 10 10 10 10 10 10 10 10 10 10 0 0 0 0 0 0 0 0 0 0 0 0 0 0 0 0 0 0 0 0 0 0 0 0 0 0 0 0 0 0 0 0 0 0                           |
 ├────────────────────┼─────────────────────────────────────────────────────────────────────────────────────────────────────────────────────────────────────────────────────────────────────────────────────────┤
 | 0x000000000000000d | 16 15 15 15 15 15 15 15 15 15 15 15 15 15 15 15 15 15 0 0 0 0 0 0 0 0 0 0 0 0 0 0 0 0 0 0 0 0 0 0 0 0 0 0 0 0 0 0 0 0 0 0 0 0 0 0 0 0 0 0 0 0 0 0                                       |
 ├────────────────────┼─────────────────────────────────────────────────────────────────────────────────────────────────────────────────────────────────────────────────────────────────────────────────────────┤
 | 0x000000000000000e | 25 25 25 25 25 25 25 25 25 25 25 25 25 25 25 25 25 25 25 25 25 25 25 25 25 25 25 25 25 25 25 25 25 25 25 25 25 25 25 25 25 25 25 25 25 25 25 25 25 25 0 0 0 0 0 0 0 0 0 0 0 0 0 0       |
 ├────────────────────┼─────────────────────────────────────────────────────────────────────────────────────────────────────────────────────────────────────────────────────────────────────────────────────────┤
 | 0x000000000000000f | 21 19 13 13 12 12 13 13 18 13 12 12 12 12 12 12 12 12 12 12 12 12 12 2 2 2 2 2 2 2 2 2 2 2 2 2 2 2 2 2 2 2 2 2 2 2 2 2 2 0 0 0 0 0 0 0 0 0 0 0 2 1 2 2                                  |
 ├────────────────────┼─────────────────────────────────────────────────────────────────────────────────────────────────────────────────────────────────────────────────────────────────────────────────────────┤
 | 0x0000000000000010 | 25 25 25 25 25 25 25 25 25 25 25 25 25 25 25 25 25 25 25 25 25 25 25 25 25 25 25 25 25 25 25 25 25 25 25 25 25 25 25 25 25 25 25 25 25 25 25 25 0 0 0 0 0 0 0 0 0 0 0 0 0 0 0 0         |
 ├────────────────────┼─────────────────────────────────────────────────────────────────────────────────────────────────────────────────────────────────────────────────────────────────────────────────────────┤
 | 0x0000000000000011 | 16 16 16 16 16 16 16 16 16 16 16 16 16 16 16 16 16 16 16 16 16 16 16 3 3 3 3 3 3 3 3 3 3 3 3 3 3 3 3 3 3 3 3 3 3 3 3 0 0 0 0 0 0 0 0 0 0 0 0 0 0 0 0 0                                  |
 ├────────────────────┼─────────────────────────────────────────────────────────────────────────────────────────────────────────────────────────────────────────────────────────────────────────────────────────┤
 | 0x0000000000000012 | 25 25 25 25 25 25 25 25 25 25 25 25 25 25 25 25 25 25 25 25 25 25 25 25 25 25 25 25 25 25 25 25 25 25 25 25 25 25 25 25 25 25 25 25 25 25 0 0 0 0 0 0 0 0 0 0 0 0 0 0 0 0 0 0           |
 ├────────────────────┼─────────────────────────────────────────────────────────────────────────────────────────────────────────────────────────────────────────────────────────────────────────────────────────┤
 | 0x0000000000000013 | 27 27 27 27 27 27 27 27 27 27 27 27 27 27 27 27 27 27 27 27 27 27 27 4 4 4 4 4 4 4 4 4 4 4 4 4 4 4 4 4 4 4 4 4 4 0 0 0 0 0 0 0 0 0 0 0 0 0 0 0 0 0 0 0                                  |
 ├────────────────────┼─────────────────────────────────────────────────────────────────────────────────────────────────────────────────────────────────────────────────────────────────────────────────────────┤
 | 0x0000000000000014 | 25 25 25 25 25 25 25 25 25 25 25 25 25 25 25 25 25 25 25 25 25 25 25 25 25 25 25 25 25 25 25 25 25 25 25 25 25 25 25 25 25 25 25 25 0 0 0 0 0 0 0 0 0 0 0 0 0 0 0 0 0 0 0 0             |
 ├────────────────────┼─────────────────────────────────────────────────────────────────────────────────────────────────────────────────────────────────────────────────────────────────────────────────────────┤
 | 0x0000000000000015 | 27 27 27 27 27 27 27 27 27 27 27 27 27 27 27 27 27 27 27 27 27 27 27 4 4 4 4 4 4 4 4 4 4 4 4 4 4 4 4 4 4 4 4 0 0 0 0 0 0 0 0 0 0 0 0 0 0 0 0 0 0 0 0 0                                  |
 ├────────────────────┼─────────────────────────────────────────────────────────────────────────────────────────────────────────────────────────────────────────────────────────────────────────────────────────┤
 | 0x0000000000000016 | 25 25 25 25 25 25 25 25 25 25 25 25 25 25 25 25 25 25 25 25 25 25 25 25 25 25 25 25 25 25 25 25 25 25 25 25 25 25 25 25 25 25 0 0 0 0 0 0 0 0 0 0 0 0 0 0 0 0 0 0 0 0 0 0               |
 ├────────────────────┼─────────────────────────────────────────────────────────────────────────────────────────────────────────────────────────────────────────────────────────────────────────────────────────┤
 | 0x0000000000000017 | 17 17 17 17 17 17 17 17 17 17 17 17 17 17 17 17 17 17 17 17 17 17 17 2 2 2 2 2 2 2 2 2 2 2 2 2 2 2 2 2 2 0 0 0 0 0 0 0 0 0 0 0 0 0 0 0 0 0 0 0 0 0 0 0                                  |
 ├────────────────────┼─────────────────────────────────────────────────────────────────────────────────────────────────────────────────────────────────────────────────────────────────────────────────────────┤
 | 0x0000000000000019 | 16 16 16 16 16 16 16 16 16 16 16 16 16 16 16 16 16 16 16 16 16 16 16 1 1 1 1 1 1 1 1 1 1 1 1 1 1 1 1 0 0 0 0 0 0 0 0 0 0 0 0 0 0 0 0 0 0 0 0 0 0 0 0 0                                  |
 ├────────────────────┼─────────────────────────────────────────────────────────────────────────────────────────────────────────────────────────────────────────────────────────────────────────────────────────┤
 | 0x000000000000001b | 21 21 21 20 20 20 0 0 0 0 0 0 0 0 0 0 0 0 0 0 0 0 0 0 0 0 0 0 0 0 0 0 20 20 20 20 20 20 0 0 0 0 0 0 0 0 0 0 0 0 0 0 0 0 0 0 0 0 0 0 0 0 0 0                                             |
 ├────────────────────┼─────────────────────────────────────────────────────────────────────────────────────────────────────────────────────────────────────────────────────────────────────────────────────────┤
 | 0x000000000000001d | 23 16 16 20 16 16 16 16 16 16 16 16 16 16 16 16 16 16 16 16 16 16 16 0 0 0 0 0 0 0 0 1 0 0 0 0 0 0 2 0 0 0 0 0 0 0 0 0 0 0 0 0 0 0 0 0 0 0 0 0 4 0 0 0                                  |
 ├────────────────────┼─────────────────────────────────────────────────────────────────────────────────────────────────────────────────────────────────────────────────────────────────────────────────────────┤
 | 0x000000000000001e | 31 31 0 0 0 0 0 0 0 0 0 0 0 0 0 0 0 0 0 0 0 0 0 0 0 0 0 0 0 0 0 0 0 0 0 0 0 0 0 0 0 0 0 0 0 0 0 0 0 0 0 0 0 0 0 0 0 0 0 0 0 0 0 0                                                       |
 ├────────────────────┼─────────────────────────────────────────────────────────────────────────────────────────────────────────────────────────────────────────────────────────────────────────────────────────┤
 | 0x000000000000001f | 31 31 0 0 0 0 0 0 0 0 0 0 0 0 0 0 0 0 0 0 0 0 0 0 0 0 0 0 0 0 0 0 0 0 0 0 0 0 0 0 0 0 0 0 0 0 0 0 0 0 0 0 0 0 0 0 0 0 0 0 0 0 0 0                                                       |
 ├────────────────────┼─────────────────────────────────────────────────────────────────────────────────────────────────────────────────────────────────────────────────────────────────────────────────────────┤
 | 0x0000000000000020 | 26 23 23 23 23 23 23 23 23 23 0 0 0 0 0 0 0 0 0 0 0 0 0 0 0 0 0 0 0 0 0 0 0 0 0 0 0 0 0 0 0 0 0 0 0 0 0 0 0 0 0 0 0 0 0 0 0 2 0 0 0 2 0 0                                               |
 ├────────────────────┼─────────────────────────────────────────────────────────────────────────────────────────────────────────────────────────────────────────────────────────────────────────────────────────┤
 | 0x0000000000000021 | 27 27 27 27 27 27 27 27 27 8 8 8 8 8 8 8 8 8 8 8 8 8 8 0 0 0 0 0 0 0 0 0 0 0 0 0 0 0 0 0 0 0 0 0 0 0 0 0 0 0 0 0 0 0 0 0 0 0 0 0 0 0 0 0                                                |
 ├────────────────────┼─────────────────────────────────────────────────────────────────────────────────────────────────────────────────────────────────────────────────────────────────────────────────────────┤
 | 0x0000000000000023 | 29 29 29 29 3 2 2 2 2 2 2 2 2 2 2 2 2 2 2 2 2 2 2 0 0 0 0 0 0 0 0 0 0 0 0 0 0 0 0 0 0 0 0 0 0 0 0 0 0 0 0 0 0 0 0 0 0 0 0 0 0 0 0 0                                                     |
 ├────────────────────┼─────────────────────────────────────────────────────────────────────────────────────────────────────────────────────────────────────────────────────────────────────────────────────────┤
 | 0x0000000000000024 | 19 19 19 18 13 1 1 1 0 0 0 0 0 0 0 0 0 0 0 0 0 0 0 0 0 0 0 0 0 0 0 0 0 0 0 0 0 0 0 0 0 0 0 0 0 0 0 0 0 0 0 0 0 0 0 0 0 0 0 0 0 0 0 0                                                    |
 ├────────────────────┼─────────────────────────────────────────────────────────────────────────────────────────────────────────────────────────────────────────────────────────────────────────────────────────┤
 | 0x0000000000000025 | 27 27 27 27 27 27 27 27 27 27 27 27 27 27 27 27 27 27 27 27 27 27 27 0 0 0 0 0 0 0 0 0 0 0 0 0 0 0 0 0 0 0 0 0 0 0 0 0 0 0 0 0 0 0 0 0 0 0 0 0 0 0 0 0                                  |
 ├────────────────────┼─────────────────────────────────────────────────────────────────────────────────────────────────────────────────────────────────────────────────────────────────────────────────────────┤
 | 0x0000000000000026 | 21 21 20 20 20 1 0 0 0 0 0 0 0 0 0 0 0 0 0 0 0 0 0 0 0 0 0 0 0 0 0 0 0 0 0 0 0 0 0 0 0 0 0 0 0 0 0 0 0 0 0 0 0 0 0 0 0 0 0 0 0 0 0 0                                                    |
 ├────────────────────┼─────────────────────────────────────────────────────────────────────────────────────────────────────────────────────────────────────────────────────────────────────────────────────────┤
 | 0x0000000000000027 | 21 21 2 2 2 2 2 2 2 2 2 2 2 2 2 2 2 2 2 2 2 2 2 0 0 0 0 0 0 0 0 0 0 0 0 0 0 0 0 0 0 0 0 0 0 0 0 0 0 0 0 0 0 0 0 0 0 0 0 0 0 0 0 0                                                       |
 ├────────────────────┼─────────────────────────────────────────────────────────────────────────────────────────────────────────────────────────────────────────────────────────────────────────────────────────┤
 | 0x0000000000000028 | 17 17 8 8 0 0 0 0 0 0 0 0 0 0 0 0 0 0 0 0 0 0 0 0 0 0 0 0 0 0 0 0 0 0 0 0 0 0 0 0 0 0 0 0 0 0 0 0 0 0 0 0 0 0 0 0 0 0 0 0 0 0 0 0                                                       |
 ├────────────────────┼─────────────────────────────────────────────────────────────────────────────────────────────────────────────────────────────────────────────────────────────────────────────────────────┤
 | 0x0000000000000029 | 27 25 11 10 10 0 0 0 0 0 0 0 0 0 0 0 0 0 0 0 0 0 0 0 0 0 0 0 0 0 0 0 0 0 0 0 0 0 0 0 0 0 0 0 0 0 0 0 0 0 0 0 0 0 0 0 0 0 0 0 0 0 0 0                                                    |
 ├────────────────────┼─────────────────────────────────────────────────────────────────────────────────────────────────────────────────────────────────────────────────────────────────────────────────────────┤
 | 0x000000000000002a | 27 27 14 14 0 0 0 0 0 0 0 0 0 0 0 0 0 0 0 0 0 0 0 0 0 0 0 0 0 0 0 0 0 0 0 0 0 0 0 0 0 0 0 0 0 0 0 0 0 0 0 0 0 0 0 0 0 0 0 0 0 0 0 0                                                     |
 ├────────────────────┼─────────────────────────────────────────────────────────────────────────────────────────────────────────────────────────────────────────────────────────────────────────────────────────┤
 | 0x000000000000002b | 17 17 0 0 0 0 0 0 0 0 0 0 0 0 0 0 0 0 0 0 0 0 0 0 0 0 0 0 0 0 0 0 0 0 0 0 0 0 0 0 0 0 0 0 0 0 0 0 0 0 0 0 0 0 0 0 0 0 0 0 0 0 0 0                                                       |
 ├────────────────────┼─────────────────────────────────────────────────────────────────────────────────────────────────────────────────────────────────────────────────────────────────────────────────────────┤
 | 0x000000000000002c | 29 29 1 1 1 1 1 1 1 0 0 0 0 0 0 0 0 0 0 0 0 0 0 0 0 0 0 0 0 0 0 0 0 0 0 0 0 0 0 0 0 0 0 0 0 0 0 0 0 0 0 0 0 0 0 0 0 0 0 0 0 0 0 0                                                       |
 ├────────────────────┼─────────────────────────────────────────────────────────────────────────────────────────────────────────────────────────────────────────────────────────────────────────────────────────┤
 | 0x000000000000002d | 29 29 28 28 28 0 0 0 0 0 0 0 0 0 0 0 0 0 0 0 0 0 0 0 0 0 0 0 0 0 0 0 0 0 0 0 0 0 0 0 0 0 0 0 0 0 0 0 0 0 0 0 0 0 0 0 0 0 0 0 0 0 0 0                                                    |
 ├────────────────────┼─────────────────────────────────────────────────────────────────────────────────────────────────────────────────────────────────────────────────────────────────────────────────────────┤
 | 0x000000000000002e | 17 17 16 16 1 0 0 0 0 0 0 0 0 0 0 0 0 0 0 0 0 0 0 0 0 0 0 0 0 0 0 0 0 0 0 0 0 0 0 0 0 0 0 0 0 0 0 0 0 0 0 0 0 0 0 0 0 0 0 0 0 0 0 0                                                     |
 ├────────────────────┼─────────────────────────────────────────────────────────────────────────────────────────────────────────────────────────────────────────────────────────────────────────────────────────┤
 | 0x000000000000002f | 25 25 25 24 22 15 15 15 15 15 15 15 15 15 15 15 15 0 0 0 0 0 0 0 0 0 0 0 0 0 0 0 0 0 0 0 0 0 0 0 0 0 0 0 0 0 0 0 0 0 0 0 0 0 0 0 0 0 0 0 0 0 0 0                                        |
 ├────────────────────┼─────────────────────────────────────────────────────────────────────────────────────────────────────────────────────────────────────────────────────────────────────────────────────────┤
 | 0x0000000000000030 | 21 21 21 21 21 21 16 16 16 16 16 16 16 16 16 16 0 0 0 0 0 0 0 0 0 0 0 0 0 0 0 0 0 0 0 0 0 0 0 0 0 0 0 0 0 0 0 0 0 0 0 0 0 0 0 0 0 0 0 0 0 0 0 0                                         |
 ├────────────────────┼─────────────────────────────────────────────────────────────────────────────────────────────────────────────────────────────────────────────────────────────────────────────────────────┤
 | 0x0000000000000031 | 29 29 28 28 28 0 0 0 0 0 0 0 0 0 0 0 0 0 0 0 0 0 0 0 0 0 0 0 0 0 0 0 0 0 0 0 0 0 0 0 0 0 0 0 0 0 0 0 0 0 0 0 0 0 0 0 0 0 0 0 0 0 0 0                                                    |
 ├────────────────────┼─────────────────────────────────────────────────────────────────────────────────────────────────────────────────────────────────────────────────────────────────────────────────────────┤
 | 0x0000000000000032 | 17 17 16 0 0 0 0 0 0 0 0 0 0 0 0 0 0 0 0 0 0 0 0 0 0 0 0 0 0 0 0 0 0 0 0 0 0 0 0 0 0 0 0 0 0 0 0 0 0 0 0 0 0 0 0 0 0 0 0 0 0 0 0 0                                                      |
 ├────────────────────┼─────────────────────────────────────────────────────────────────────────────────────────────────────────────────────────────────────────────────────────────────────────────────────────┤
 | 0x0000000000000033 | 20 19 19 19 18 11 11 11 9 9 8 8 8 0 0 0 0 0 0 0 0 0 0 0 0 0 0 0 0 0 0 0 0 0 0 0 0 0 0 0 0 0 0 0 0 0 0 0 0 0 0 0 0 0 0 0 0 0 0 0 0 0 0 0                                                 |
 ├────────────────────┼─────────────────────────────────────────────────────────────────────────────────────────────────────────────────────────────────────────────────────────────────────────────────────────┤
 | 0x0000000000000034 | 23 23 22 22 22 0 0 0 0 0 0 0 0 0 0 0 0 0 0 0 0 0 0 0 0 0 0 0 0 0 0 0 0 0 0 0 0 0 0 0 0 0 0 0 0 0 0 0 0 0 0 0 0 0 0 0 0 0 0 0 0 0 0 0                                                    |
 ├────────────────────┼─────────────────────────────────────────────────────────────────────────────────────────────────────────────────────────────────────────────────────────────────────────────────────────┤
 | 0x0000000000000035 | 25 24 24 24 0 0 0 0 0 0 0 0 0 0 0 0 0 0 0 0 0 0 0 0 0 0 0 0 0 0 0 0 0 0 0 0 0 0 0 0 0 0 0 0 0 0 0 0 0 0 0 0 0 0 0 0 0 0 0 0 0 0 0 0                                                     |
 ├────────────────────┼─────────────────────────────────────────────────────────────────────────────────────────────────────────────────────────────────────────────────────────────────────────────────────────┤
 | 0x0000000000000036 | 25 25 24 24 24 24 24 24 24 24 0 0 0 0 0 0 0 0 0 0 0 0 0 0 0 0 0 0 0 0 0 0 0 0 0 0 0 0 0 0 0 0 0 0 0 0 0 0 0 0 0 0 0 0 0 0 0 0 0 0 0 0 0 0                                               |
 ├────────────────────┼─────────────────────────────────────────────────────────────────────────────────────────────────────────────────────────────────────────────────────────────────────────────────────────┤
 | 0x0000000000000037 | 23 23 22 22 13 11 11 11 11 0 0 0 0 0 0 0 0 0 0 0 0 0 0 0 0 0 0 0 0 0 0 0 0 0 0 0 0 0 0 0 0 0 0 0 0 0 0 0 0 0 0 0 0 0 0 0 0 0 0 0 0 0 0 1                                                |
 ├────────────────────┼─────────────────────────────────────────────────────────────────────────────────────────────────────────────────────────────────────────────────────────────────────────────────────────┤
 | 0x0000000000000038 | 22 21 12 12 12 0 0 0 0 0 0 0 0 0 0 0 0 0 0 0 0 0 0 0 0 0 0 0 0 0 0 0 0 0 0 0 0 0 0 0 0 0 0 0 0 0 0 0 0 0 0 0 0 0 0 0 0 0 0 0 0 0 0 0                                                    |
 ├────────────────────┼─────────────────────────────────────────────────────────────────────────────────────────────────────────────────────────────────────────────────────────────────────────────────────────┤
 | 0x0000000000000039 | 18 18 17 17 0 0 0 0 0 0 0 0 0 0 0 0 0 0 0 0 0 0 0 0 0 0 0 0 0 0 0 0 0 0 0 0 0 0 0 0 0 0 0 0 0 0 0 0 0 0 0 0 0 0 0 0 0 0 0 0 0 0 0 0                                                     |
 ├────────────────────┼─────────────────────────────────────────────────────────────────────────────────────────────────────────────────────────────────────────────────────────────────────────────────────────┤
 | 0x000000000000003a | 17 16 16 16 16 16 0 0 0 0 0 0 0 0 0 0 0 0 0 0 0 0 0 0 0 0 0 0 0 0 0 0 0 0 0 0 0 0 0 0 0 0 0 0 0 0 0 0 0 0 0 0 0 0 0 0 0 0 0 0 0 0 0 0                                                   |
 ├────────────────────┼─────────────────────────────────────────────────────────────────────────────────────────────────────────────────────────────────────────────────────────────────────────────────────────┤
 | 0x000000000000003b | 16 15 15 15 15 0 0 0 0 0 0 0 0 0 0 0 0 0 0 0 0 0 0 0 0 0 0 0 0 0 0 0 0 0 0 0 0 0 0 0 0 0 0 0 0 0 0 0 0 0 0 0 0 0 0 0 0 0 0 0 0 0 0 0                                                    |
 ├────────────────────┼─────────────────────────────────────────────────────────────────────────────────────────────────────────────────────────────────────────────────────────────────────────────────────────┤
 | 0x000000000000003c | 29 28 27 22 0 0 0 0 0 0 0 0 0 0 0 0 0 0 0 0 0 0 0 0 0 0 0 0 0 0 0 0 0 0 0 0 0 0 0 0 0 0 0 0 0 0 0 0 0 0 0 0 0 0 0 0 0 0 0 0 0 0 0 0                                                     |
 ├────────────────────┼─────────────────────────────────────────────────────────────────────────────────────────────────────────────────────────────────────────────────────────────────────────────────────────┤
 | 0x000000000000003d | 30 30 21 0 0 0 0 0 0 0 0 0 0 0 0 0 0 0 0 0 0 0 0 0 0 0 0 0 0 0 0 0 0 0 0 0 0 0 0 0 0 0 0 0 0 0 0 0 0 0 0 0 0 0 0 0 0 0 0 0 0 0 0 0                                                      |
 ├────────────────────┼─────────────────────────────────────────────────────────────────────────────────────────────────────────────────────────────────────────────────────────────────────────────────────────┤
 | 0x000000000000003e | 19 19 0 0 0 0 0 0 0 0 0 0 0 0 0 0 0 0 0 0 0 0 0 0 0 0 0 0 0 0 0 0 0 0 0 0 0 0 0 0 0 0 0 0 0 0 0 0 0 0 0 0 0 0 0 0 0 0 0 0 0 0 0 0                                                       |
 └────────────────────┴─────────────────────────────────────────────────────────────────────────────────────────────────────────────────────────────────────────────────────────────────────────────────────────┘
Offset pattern table end
PC pattern table begin
 ┌────────────────────┬──────────────────────────────────────────────────────────────────────────────────────────────────┐
 | Key                | Pattern                                                                                          |
 ├────────────────────┼──────────────────────────────────────────────────────────────────────────────────────────────────┤
 | 0x0000000000000000 | 9 2 4 0 2 0 0 0 0 0 0 0 0 0 0 0 0 0 0 0 0 0 0 0 0 0 0 0 0 0 7 2                                  |
 ├────────────────────┼──────────────────────────────────────────────────────────────────────────────────────────────────┤
 | 0x0000000000000001 | 1 0 0 0 0 0 0 0 0 0 0 1 0 1 0 0 0 0 0 0 0 0 0 0 0 0 0 0 0 1 0 0                                  |
 ├────────────────────┼──────────────────────────────────────────────────────────────────────────────────────────────────┤
 | 0x0000000000000002 | 23 22 22 22 22 22 22 22 22 22 22 22 22 22 22 22 22 22 22 22 22 22 22 22 22 22 22 22 22 22 22 22  |
 ├────────────────────┼──────────────────────────────────────────────────────────────────────────────────────────────────┤
 | 0x0000000000000003 | 20 18 18 17 14 13 12 12 12 12 12 12 12 12 12 12 12 12 12 12 12 12 12 11 11 11 11 7 3 0 0 1       |
 ├────────────────────┼──────────────────────────────────────────────────────────────────────────────────────────────────┤
 | 0x0000000000000004 | 2 2 0 0 0 0 0 0 0 0 0 0 0 0 0 0 0 0 0 0 0 0 0 0 0 0 0 0 0 0 0 0                                  |
 ├────────────────────┼──────────────────────────────────────────────────────────────────────────────────────────────────┤
 | 0x0000000000000005 | 16 15 0 0 0 0 0 0 0 0 0 0 0 0 0 0 15 15 0 0 0 0 0 0 0 0 0 0 0 0 0 0                              |
 ├────────────────────┼──────────────────────────────────────────────────────────────────────────────────────────────────┤
 | 0x0000000000000006 | 16 12 7 3 3 2 1 1 1 1 0 0 0 0 0 0 0 0 0 0 0 0 0 0 0 0 0 0 0 0 0 0                                |
 ├────────────────────┼──────────────────────────────────────────────────────────────────────────────────────────────────┤
 | 0x0000000000000007 | 21 21 20 20 20 20 20 20 20 19 19 19 19 19 19 19 19 19 19 19 19 19 19 19 19 19 19 19 19 19 19 19  |
 ├────────────────────┼──────────────────────────────────────────────────────────────────────────────────────────────────┤
 | 0x0000000000000009 | 2 0 0 0 0 0 0 0 0 0 0 0 0 0 0 0 0 0 0 0 0 0 0 0 0 0 0 0 0 0 0 2                                  |
 ├────────────────────┼──────────────────────────────────────────────────────────────────────────────────────────────────┤
 | 0x000000000000000a | 23 23 23 0 0 0 0 0 0 0 0 0 0 0 0 0 0 0 0 0 0 0 0 0 0 0 0 0 0 0 0 0                               |
 ├────────────────────┼──────────────────────────────────────────────────────────────────────────────────────────────────┤
 | 0x000000000000000b | 20 13 7 3 2 2 1 1 1 1 0 0 0 0 0 0 0 0 0 0 0 0 0 0 0 0 0 0 0 0 0 0                                |
 ├────────────────────┼──────────────────────────────────────────────────────────────────────────────────────────────────┤
 | 0x000000000000000d | 20 18 18 18 0 0 0 0 0 0 0 0 0 0 0 0 18 18 18 18 0 0 0 0 0 0 0 0 1 0 1 0                          |
 ├────────────────────┼──────────────────────────────────────────────────────────────────────────────────────────────────┤
 | 0x000000000000000e | 21 20 0 0 0 0 0 0 0 0 0 0 0 0 0 0 20 20 0 0 0 0 0 0 0 0 0 0 0 0 0 0                              |
 ├────────────────────┼──────────────────────────────────────────────────────────────────────────────────────────────────┤
 | 0x000000000000000f | 26 23 24 10 5 0 0 0 0 0 0 0 0 0 0 0 1 0 0 1 0 0 0 0 0 0 0 0 0 0 0 0                              |
 ├────────────────────┼──────────────────────────────────────────────────────────────────────────────────────────────────┤
 | 0x0000000000000010 | 4 2 0 0 0 0 0 0 0 0 0 0 0 0 0 0 0 0 0 0 0 0 0 0 0 0 0 0 0 0 2 0                                  |
 ├────────────────────┼──────────────────────────────────────────────────────────────────────────────────────────────────┤
 | 0x0000000000000011 | 1 1 0 0 0 0 0 0 0 0 0 0 0 0 0 0 0 0 0 0 0 0 0 0 0 0 0 0 0 0 0 0                                  |
 ├────────────────────┼──────────────────────────────────────────────────────────────────────────────────────────────────┤
 | 0x0000000000000012 | 22 0 0 0 0 0 0 0 0 0 0 0 0 21 21 21 21 0 0 0 0 0 0 0 0 0 0 0 0 21 21 21                          |
 ├────────────────────┼──────────────────────────────────────────────────────────────────────────────────────────────────┤
 | 0x0000000000000013 | 27 20 12 3 3 3 1 1 1 1 1 1 1 1 1 0 0 0 0 0 0 0 0 0 0 0 0 0 0 0 0 0                               |
 ├────────────────────┼──────────────────────────────────────────────────────────────────────────────────────────────────┤
 | 0x0000000000000015 | 25 24 23 23 23 23 23 23 23 23 23 23 22 22 22 22 22 22 22 22 22 22 22 22 22 22 22 22 22 22 21 21  |
 ├────────────────────┼──────────────────────────────────────────────────────────────────────────────────────────────────┤
 | 0x0000000000000016 | 26 25 17 4 0 0 0 0 0 0 0 0 0 0 0 0 0 0 0 0 0 0 0 0 0 0 0 0 1 0 1 0                               |
 ├────────────────────┼──────────────────────────────────────────────────────────────────────────────────────────────────┤
 | 0x0000000000000017 | 19 18 18 17 15 12 8 8 7 7 6 6 6 6 6 6 6 6 6 6 6 6 6 6 6 6 5 4 1 0 0 0                            |
 ├────────────────────┼──────────────────────────────────────────────────────────────────────────────────────────────────┤
 | 0x0000000000000018 | 8 7 1 1 8 1 0 0 0 0 0 0 0 0 0 0 0 0 0 0 0 0 0 0 0 0 0 0 0 0 1 1                                  |
 ├────────────────────┼──────────────────────────────────────────────────────────────────────────────────────────────────┤
 | 0x0000000000000019 | 2 0 0 0 0 0 0 0 0 0 0 0 0 0 0 0 0 0 0 2 0 0 0 0 0 0 0 0 0 0 0 0                                  |
 ├────────────────────┼──────────────────────────────────────────────────────────────────────────────────────────────────┤
 | 0x000000000000001a | 23 22 19 17 18 15 15 15 14 14 14 14 14 14 14 14 14 14 14 14 14 14 14 14 14 14 14 14 14 14 4 0    |
 ├────────────────────┼──────────────────────────────────────────────────────────────────────────────────────────────────┤
 | 0x000000000000001c | 27 27 25 23 23 22 21 21 21 21 21 21 21 21 21 21 21 21 21 21 21 21 21 21 21 21 21 21 21 20 12 1   |
 ├────────────────────┼──────────────────────────────────────────────────────────────────────────────────────────────────┤
 | 0x000000000000001d | 17 0 0 0 0 0 0 0 0 0 0 0 0 16 16 16 16 0 0 0 0 0 0 0 0 0 0 0 0 16 16 16                          |
 ├────────────────────┼──────────────────────────────────────────────────────────────────────────────────────────────────┤
 | 0x000000000000001e | 22 21 21 21 21 21 21 21 21 21 21 21 21 21 21 21 21 21 21 21 21 21 21 21 21 21 21 21 21 21 21 21  |
 ├────────────────────┼──────────────────────────────────────────────────────────────────────────────────────────────────┤
 | 0x000000000000001f | 19 12 7 2 0 0 0 0 0 0 0 0 0 0 0 0 0 0 0 0 0 0 0 0 0 0 0 0 0 0 0 0                                |
 └────────────────────┴──────────────────────────────────────────────────────────────────────────────────────────────────┘
PC pattern table end
Prefetch buffer begin
 ┌────────────────────┬──────────────────────────────────────────────────────────────────────────────────────────────────────────────────────────────────┐
 | Region             | Pattern                                                                                                                          |
 ├────────────────────┼──────────────────────────────────────────────────────────────────────────────────────────────────────────────────────────────────┤
 | 0x0000000f2eeee515 | 0 0 0 0 0 0 0 0 0 0 0 0 0 0 0 0 0 0 0 0 0 0 0 0 0 0 0 0 0 0 0 0 0 0 0 0 0 0 0 0 0 0 0 0 2 2 0 0 0 0 0 0 0 0 0 0 0 0 0 0 0 0 0 0  |
 ├────────────────────┼──────────────────────────────────────────────────────────────────────────────────────────────────────────────────────────────────┤
 | 0x0000000b3a8ecdb1 | 2 2 2 2 2 2 2 2 2 2 2 2 2 2 2 2 2 2 2 2 2 2 2 2 2 2 2 2 2 2 2 2 2 2 2 2 2 2 2 2 2 2 2 2 2 2 2 0 0 0 0 0 0 0 0 0 0 0 0 0 0 0 0 0  |
 ├────────────────────┼──────────────────────────────────────────────────────────────────────────────────────────────────────────────────────────────────┤
 | 0x0000000f2eeee519 | 0 0 0 0 0 0 0 0 0 0 0 0 0 0 0 0 0 0 0 0 0 0 0 0 0 0 0 0 0 0 0 0 0 0 0 0 0 0 0 0 0 0 0 0 0 0 0 0 0 0 0 0 0 0 0 0 0 0 0 2 2 2 2 2  |
 ├────────────────────┼──────────────────────────────────────────────────────────────────────────────────────────────────────────────────────────────────┤
 | 0x0000000f2eeee522 | 0 0 0 0 0 0 0 0 0 0 0 0 0 0 0 0 0 0 0 0 0 0 0 0 0 0 0 0 0 0 0 0 0 2 0 0 0 0 0 0 0 0 0 0 0 0 0 0 0 0 0 0 0 0 0 0 0 0 2 1 1 1 1 1  |
 ├────────────────────┼──────────────────────────────────────────────────────────────────────────────────────────────────────────────────────────────────┤
 | 0x0000000f2eeee526 | 0 0 0 0 0 0 0 0 0 0 0 0 0 0 0 0 0 0 0 0 0 0 0 0 0 0 0 0 0 0 0 0 0 0 0 0 0 0 0 0 0 2 0 0 0 0 0 0 0 0 0 0 0 0 0 0 0 0 0 0 0 0 0 0  |
 ├────────────────────┼──────────────────────────────────────────────────────────────────────────────────────────────────────────────────────────────────┤
 | 0x0000000f2eeee51c | 0 0 0 0 0 0 0 0 0 0 0 0 0 0 0 0 0 0 0 0 0 0 2 2 2 2 2 2 2 2 2 2 2 2 2 2 2 2 2 2 2 2 2 2 2 2 2 2 2 2 2 2 2 2 2 2 0 0 0 0 0 0 0 0  |
 ├────────────────────┼──────────────────────────────────────────────────────────────────────────────────────────────────────────────────────────────────┤
 | 0x0000000735ce4bad | 2 0 0 0 0 0 0 0 0 0 0 0 0 0 0 0 0 0 0 0 0 0 0 2 2 2 2 2 2 2 2 0 0 0 0 0 0 0 0 0 0 0 0 0 0 0 0 0 0 0 0 0 0 0 0 0 0 0 0 0 0 0 0 0  |
 ├────────────────────┼──────────────────────────────────────────────────────────────────────────────────────────────────────────────────────────────────┤
 | 0x0000000735ce4d4a | 2 0 0 0 0 0 0 0 0 0 0 0 0 0 0 0 0 0 0 0 0 0 0 2 2 2 2 2 2 2 2 0 0 0 0 0 0 0 0 0 0 0 0 0 0 0 0 0 0 0 0 0 0 0 0 0 0 0 0 0 0 0 0 0  |
 ├────────────────────┼──────────────────────────────────────────────────────────────────────────────────────────────────────────────────────────────────┤
 | 0x000000064c355acb | 2 2 2 2 2 2 2 2 2 2 2 2 2 2 2 2 2 2 2 2 2 2 2 2 2 2 2 2 2 2 2 2 2 2 2 2 2 2 2 2 2 2 2 2 2 2 2 0 0 0 0 0 0 0 0 0 0 0 0 0 0 0 0 0  |
 ├────────────────────┼──────────────────────────────────────────────────────────────────────────────────────────────────────────────────────────────────┤
 | 0x0000000b3a8ece68 | 0 0 0 0 0 0 0 0 0 0 0 0 0 0 0 0 0 0 0 0 0 0 0 0 0 0 0 0 0 0 0 0 0 0 0 2 2 2 2 2 2 2 2 2 2 2 0 0 0 0 0 0 0 0 0 0 0 0 0 0 0 0 0 0  |
 ├────────────────────┼──────────────────────────────────────────────────────────────────────────────────────────────────────────────────────────────────┤
 | 0x000000041464e169 | 2 2 2 2 2 2 2 2 2 2 2 2 2 2 2 2 2 2 2 2 2 2 2 2 2 2 2 2 2 2 2 2 2 2 2 2 2 2 2 2 2 2 2 2 2 2 2 2 2 2 2 2 2 2 2 0 0 0 0 0 0 0 0 0  |
 └────────────────────┴──────────────────────────────────────────────────────────────────────────────────────────────────────────────────────────────────┘
Prefetch buffer end

DRAM Statistics
 CHANNEL 0
 RQ ROW_BUFFER_HIT:    8570822  ROW_BUFFER_MISS:    5594711
 WQ ROW_BUFFER_HIT:    2051555  ROW_BUFFER_MISS:    2618337  FULL:      27715

 DBUS_CONGESTED:    8036964
 AVG_CONGESTED_CYCLE: 6

CPU 0 Branch Prediction Accuracy: 99.999% MPKI: 0.000482 Average ROB Occupancy at Mispredict: 46.0415

Branch types
NOT_BRANCH: 476852207 95.3704%
BRANCH_DIRECT_JUMP: 70 1.4e-05%
BRANCH_INDIRECT: 0 0%
BRANCH_CONDITIONAL: 19187699 3.83754%
BRANCH_DIRECT_CALL: 1979974 0.395995%
BRANCH_INDIRECT_CALL: 0 0%
BRANCH_RETURN: 1979974 0.395995%
BRANCH_OTHER: 0 0%

