*************************************************
   ChampSim Multicore Out-of-Order Simulator
   Last compiled: Nov 21 2024 21:50:18
*************************************************
parsing config file: /home/shichen/os/compile-time-prefetcher-classification/ChampSim/config/pythia.ini

trace_0 /home/shichen/os/compile-time-prefetcher-classification/ChampSim/traces/433.milc-337B.champsimtrace.xz
adding L2C_PREFETCHER: Scooby
Initialize SHIP state
warmup_instructions 100000000
simulation_instructions 500000000
champsim_seed 223
measure_ipc 0
measure_ipc_epoch 1000
measure_dram_bw 1
measure_dram_bw_epoch 256
measure_cache_acc 1
measure_cache_acc_epoch 1024
l1d_perfect 0
l2c_perfect 0
llc_perfect 0
l1d_semi_perfect 0
l2c_semi_perfect 0
llc_semi_perfect 0
semi_perfect_cache_page_buffer_size 64

num_cpus 1
cpu_freq 4000
dram_io_freq 2400
page_size 4096
block_size 64
max_read_per_cycle 8
max_fill_per_cycle 1
dram_channels 1
log2_dram_channels 0
dram_ranks 1
dram_banks 8
dram_rows 65536
dram_columns 128
dram_row_size 8
dram_size 4096
dram_pages 1048576

fetch_width 6
decode_width 6
exec_width 4
lq_width 2
sq_width 2
retire_width 4
scheduler_size 128
branch_mispredict_penalty 20
rob_size 256
lq_size 72
sq_size 56
num_instr_destinations_sparc 4
num_instr_destinations 2
num_instr_sources 4

itlb_set 16
itlb_way 8
itlb_rq_size 16
itlb_wq_size 16
itlb_pq_size 0
itlb_mshr_size 8
itlb_latency 1

dtlb_set 16
dtlb_way 4
dtlb_rq_size 16
dtlb_wq_size 16
dtlb_pq_size 0
dtlb_mshr_size 8
dtlb_latency 1

stlb_set 128
stlb_way 12
stlb_rq_size 32
stlb_wq_size 32
stlb_pq_size 0
stlb_mshr_size 16
stlb_latency 8

l1i_size 32
l1i_set 64
l1i_way 8
l1i_rq_size 64
l1i_wq_size 64
l1i_pq_size 8
l1i_mshr_size 8
l1i_latency 1

l1d_size 32
l1d_set 64
l1d_way 8
l1d_rq_size 64
l1d_wq_size 64
l1d_pq_size 8
l1d_mshr_size 16
l1d_latency 4

l2c_size 256
l2c_set 512
l2c_way 8
l2c_rq_size 32
l2c_wq_size 32
l2c_pq_size 32
l2c_mshr_size 32
l2c_latency 10

llc_size 2048
llc_set 2048
llc_way 16
llc_rq_size 32
llc_wq_size 32
llc_pq_size 32
llc_mshr_size 64
llc_latency 20

dram_channel_width 8
dram_wq_size 64
dram_rq_size 64
tRP 15
tRCD 15
tCAS 12.5
dram_dbus_turn_around_time 30
dram_write_high_wm 56
dram_write_low_wm 48
min_dram_writes_per_switch 16
dram_mtps 2400
dram_dbus_return_time 13

scooby_alpha 0.0065088
scooby_gamma 0.556301
scooby_epsilon 0.00182284
scooby_state_num_bits 10
scooby_max_states 1024
scooby_seed 200
scooby_policy EGreedy
scooby_learning_type SARSA
scooby_actions 1,3,4,5,10,11,12,22,23,30,32,-1,-3,-6,0,
scooby_max_actions 15
scooby_pt_size 256
scooby_st_size 64
scooby_max_pcs 5
scooby_max_offsets 5
scooby_max_deltas 5
scooby_reward_none -4
scooby_reward_incorrect -8
scooby_reward_correct_untimely 12
scooby_reward_correct_timely 20
scooby_brain_zero_init 0
scooby_enable_reward_all 0
scooby_enable_track_multiple 0
scooby_enable_reward_out_of_bounds 1
scooby_reward_out_of_bounds -12
scooby_state_type 1
scooby_state_hash_type 11
scooby_access_debug 0
scooby_print_access_debug 0
scooby_print_access_debug_pc deadbeef
scooby_print_access_debug_pc_count 0
scooby_print_trace 0
scooby_enable_state_action_stats 1
scooby_enable_reward_tracker_hit 0
scooby_reward_tracker_hit -2
scooby_enable_featurewise_engine 1
scooby_pref_degree 1
scooby_enable_dyn_degree 1
scooby_max_to_avg_q_thresholds 0.5,1,2,
scooby_dyn_degrees 1,2,4,4,
scooby_multi_deg_select_type 2
scooby_last_pref_offset_conf_thresholds 1,3,8,
scooby_dyn_degrees_type2 1,2,4,6,
scooby_action_tracker_size 2
scooby_high_bw_thresh 4
scooby_enable_hbw_reward 1
scooby_reward_hbw_correct_timely 20
scooby_reward_hbw_correct_untimely 12
scooby_reward_hbw_incorrect -14
scooby_reward_hbw_none -2
scooby_reward_hbw_out_of_bounds -12
scooby_reward_hbw_tracker_hit -2
scooby_last_pref_offset_conf_thresholds_hbw 1,3,8,
scooby_dyn_degrees_type2_hbw 1,2,4,6,

le_enable_trace 0
le_trace_interval 0
le_trace_file_name 
le_trace_state 0
le_enable_score_plot 0
le_plot_file_name 
le_plot_actions 
le_enable_action_trace 0
le_action_trace_interval 0
le_action_trace_name 
le_enable_action_plot 0

le_featurewise_active_features PC, PC_Delta
le_featurewise_num_tilings 3,3,
le_featurewise_num_tiles 128,128,
le_featurewise_hash_types 2,2,
le_featurewise_enable_tiling_offset 1,1,
le_featurewise_max_q_thresh 0.5
le_featurewise_enable_action_fallback 1
le_featurewise_feature_weights 1,1,
le_featurewise_enable_dynamic_weight 0
le_featurewise_weight_gradient 0.001
le_featurewise_disable_adjust_weight_all_features_align 1
le_featurewise_selective_update 0
le_featurewise_pooling_type 2
le_featurewise_enable_dyn_action_fallback 1
le_featurewise_bw_acc_check_level 1
le_featurewise_acc_thresh 2
le_featurewise_enable_trace 0
le_featurewise_trace_feature_type 0
le_featurewise_trace_feature 
le_featurewise_trace_interval 0
le_featurewise_trace_record_count 0
le_featurewise_trace_file_name 
le_featurewise_enable_score_plot 0
le_featurewise_plot_actions 
le_featurewise_plot_file_name 


Heartbeat CPU  0 instructions:    1000001 cycles:     360940 heartbeat IPC: 2.77055 cumulative IPC: 2.77055 (Simulation time: 0 hr 0 min 2 sec) 
Heartbeat CPU  0 instructions:    2000003 cycles:     721840 heartbeat IPC: 2.77086 cumulative IPC: 2.77070 (Simulation time: 0 hr 0 min 3 sec) 
Heartbeat CPU  0 instructions:    3000000 cycles:    1082644 heartbeat IPC: 2.77158 cumulative IPC: 2.77099 (Simulation time: 0 hr 0 min 5 sec) 
Heartbeat CPU  0 instructions:    4000000 cycles:    1443400 heartbeat IPC: 2.77196 cumulative IPC: 2.77123 (Simulation time: 0 hr 0 min 7 sec) 
Heartbeat CPU  0 instructions:    5000002 cycles:    1804304 heartbeat IPC: 2.77083 cumulative IPC: 2.77115 (Simulation time: 0 hr 0 min 9 sec) 
Heartbeat CPU  0 instructions:    6000001 cycles:    2165179 heartbeat IPC: 2.77104 cumulative IPC: 2.77113 (Simulation time: 0 hr 0 min 11 sec) 
Heartbeat CPU  0 instructions:    7000003 cycles:    2525891 heartbeat IPC: 2.77230 cumulative IPC: 2.77130 (Simulation time: 0 hr 0 min 12 sec) 
Heartbeat CPU  0 instructions:    8000000 cycles:    2886689 heartbeat IPC: 2.77163 cumulative IPC: 2.77134 (Simulation time: 0 hr 0 min 14 sec) 
Heartbeat CPU  0 instructions:    9000003 cycles:    3247639 heartbeat IPC: 2.77048 cumulative IPC: 2.77125 (Simulation time: 0 hr 0 min 16 sec) 
Heartbeat CPU  0 instructions:   10000003 cycles:    3608415 heartbeat IPC: 2.77180 cumulative IPC: 2.77130 (Simulation time: 0 hr 0 min 18 sec) 
Heartbeat CPU  0 instructions:   11000002 cycles:    3969189 heartbeat IPC: 2.77182 cumulative IPC: 2.77135 (Simulation time: 0 hr 0 min 20 sec) 
Heartbeat CPU  0 instructions:   12000000 cycles:    4330084 heartbeat IPC: 2.77088 cumulative IPC: 2.77131 (Simulation time: 0 hr 0 min 22 sec) 
Heartbeat CPU  0 instructions:   13000003 cycles:    4690894 heartbeat IPC: 2.77155 cumulative IPC: 2.77133 (Simulation time: 0 hr 0 min 23 sec) 
Heartbeat CPU  0 instructions:   14000003 cycles:    5051671 heartbeat IPC: 2.77180 cumulative IPC: 2.77136 (Simulation time: 0 hr 0 min 25 sec) 
Heartbeat CPU  0 instructions:   15000002 cycles:    5412564 heartbeat IPC: 2.77090 cumulative IPC: 2.77133 (Simulation time: 0 hr 0 min 27 sec) 
Heartbeat CPU  0 instructions:   16000000 cycles:    5773417 heartbeat IPC: 2.77121 cumulative IPC: 2.77132 (Simulation time: 0 hr 0 min 29 sec) 
Heartbeat CPU  0 instructions:   17000001 cycles:    6134174 heartbeat IPC: 2.77195 cumulative IPC: 2.77136 (Simulation time: 0 hr 0 min 31 sec) 
Heartbeat CPU  0 instructions:   18000003 cycles:    6494985 heartbeat IPC: 2.77154 cumulative IPC: 2.77137 (Simulation time: 0 hr 0 min 32 sec) 
Heartbeat CPU  0 instructions:   19000001 cycles:    6855886 heartbeat IPC: 2.77084 cumulative IPC: 2.77134 (Simulation time: 0 hr 0 min 34 sec) 
Heartbeat CPU  0 instructions:   20000000 cycles:    7216682 heartbeat IPC: 2.77165 cumulative IPC: 2.77136 (Simulation time: 0 hr 0 min 36 sec) 
Heartbeat CPU  0 instructions:   21000002 cycles:    7577463 heartbeat IPC: 2.77177 cumulative IPC: 2.77138 (Simulation time: 0 hr 0 min 38 sec) 
Heartbeat CPU  0 instructions:   22000000 cycles:    7938348 heartbeat IPC: 2.77096 cumulative IPC: 2.77136 (Simulation time: 0 hr 0 min 40 sec) 
Heartbeat CPU  0 instructions:   23000002 cycles:    8299158 heartbeat IPC: 2.77155 cumulative IPC: 2.77137 (Simulation time: 0 hr 0 min 42 sec) 
Heartbeat CPU  0 instructions:   24000000 cycles:    8659921 heartbeat IPC: 2.77190 cumulative IPC: 2.77139 (Simulation time: 0 hr 0 min 43 sec) 
Heartbeat CPU  0 instructions:   25000000 cycles:    9020800 heartbeat IPC: 2.77101 cumulative IPC: 2.77137 (Simulation time: 0 hr 0 min 45 sec) 
Heartbeat CPU  0 instructions:   26000001 cycles:    9381694 heartbeat IPC: 2.77090 cumulative IPC: 2.77135 (Simulation time: 0 hr 0 min 47 sec) 
Heartbeat CPU  0 instructions:   27000000 cycles:    9742421 heartbeat IPC: 2.77218 cumulative IPC: 2.77138 (Simulation time: 0 hr 0 min 49 sec) 
Heartbeat CPU  0 instructions:   28000000 cycles:   10103223 heartbeat IPC: 2.77160 cumulative IPC: 2.77139 (Simulation time: 0 hr 0 min 51 sec) 
Heartbeat CPU  0 instructions:   29000001 cycles:   10464168 heartbeat IPC: 2.77051 cumulative IPC: 2.77136 (Simulation time: 0 hr 0 min 52 sec) 
Heartbeat CPU  0 instructions:   30000000 cycles:   10824957 heartbeat IPC: 2.77170 cumulative IPC: 2.77137 (Simulation time: 0 hr 0 min 54 sec) 
Heartbeat CPU  0 instructions:   31000002 cycles:   11185707 heartbeat IPC: 2.77201 cumulative IPC: 2.77139 (Simulation time: 0 hr 0 min 56 sec) 
Heartbeat CPU  0 instructions:   32000000 cycles:   11546609 heartbeat IPC: 2.77083 cumulative IPC: 2.77138 (Simulation time: 0 hr 0 min 58 sec) 
Heartbeat CPU  0 instructions:   33000002 cycles:   11907422 heartbeat IPC: 2.77152 cumulative IPC: 2.77138 (Simulation time: 0 hr 1 min 0 sec) 
Heartbeat CPU  0 instructions:   34000001 cycles:   12268187 heartbeat IPC: 2.77188 cumulative IPC: 2.77140 (Simulation time: 0 hr 1 min 1 sec) 
Heartbeat CPU  0 instructions:   35000000 cycles:   12629072 heartbeat IPC: 2.77096 cumulative IPC: 2.77138 (Simulation time: 0 hr 1 min 3 sec) 
Heartbeat CPU  0 instructions:   36000000 cycles:   12989927 heartbeat IPC: 2.77120 cumulative IPC: 2.77138 (Simulation time: 0 hr 1 min 5 sec) 
Heartbeat CPU  0 instructions:   37000001 cycles:   13350688 heartbeat IPC: 2.77192 cumulative IPC: 2.77139 (Simulation time: 0 hr 1 min 7 sec) 
Heartbeat CPU  0 instructions:   38000001 cycles:   13711495 heartbeat IPC: 2.77156 cumulative IPC: 2.77140 (Simulation time: 0 hr 1 min 9 sec) 
Heartbeat CPU  0 instructions:   39000001 cycles:   14072399 heartbeat IPC: 2.77082 cumulative IPC: 2.77138 (Simulation time: 0 hr 1 min 10 sec) 
Heartbeat CPU  0 instructions:   40000000 cycles:   14433202 heartbeat IPC: 2.77159 cumulative IPC: 2.77139 (Simulation time: 0 hr 1 min 12 sec) 
Heartbeat CPU  0 instructions:   41000001 cycles:   14793985 heartbeat IPC: 2.77175 cumulative IPC: 2.77140 (Simulation time: 0 hr 1 min 14 sec) 
Heartbeat CPU  0 instructions:   42000002 cycles:   15154869 heartbeat IPC: 2.77098 cumulative IPC: 2.77139 (Simulation time: 0 hr 1 min 16 sec) 
Heartbeat CPU  0 instructions:   43000003 cycles:   15515683 heartbeat IPC: 2.77151 cumulative IPC: 2.77139 (Simulation time: 0 hr 1 min 18 sec) 
Heartbeat CPU  0 instructions:   44000000 cycles:   15876443 heartbeat IPC: 2.77192 cumulative IPC: 2.77140 (Simulation time: 0 hr 1 min 20 sec) 
Heartbeat CPU  0 instructions:   45000000 cycles:   16237338 heartbeat IPC: 2.77089 cumulative IPC: 2.77139 (Simulation time: 0 hr 1 min 21 sec) 
Heartbeat CPU  0 instructions:   46000003 cycles:   16598205 heartbeat IPC: 2.77111 cumulative IPC: 2.77138 (Simulation time: 0 hr 1 min 23 sec) 
Heartbeat CPU  0 instructions:   47000003 cycles:   16958941 heartbeat IPC: 2.77211 cumulative IPC: 2.77140 (Simulation time: 0 hr 1 min 25 sec) 
Heartbeat CPU  0 instructions:   48000000 cycles:   17319746 heartbeat IPC: 2.77157 cumulative IPC: 2.77140 (Simulation time: 0 hr 1 min 27 sec) 
Heartbeat CPU  0 instructions:   49000001 cycles:   17680690 heartbeat IPC: 2.77052 cumulative IPC: 2.77139 (Simulation time: 0 hr 1 min 29 sec) 
Heartbeat CPU  0 instructions:   50000000 cycles:   18041492 heartbeat IPC: 2.77160 cumulative IPC: 2.77139 (Simulation time: 0 hr 1 min 30 sec) 
Heartbeat CPU  0 instructions:   51000000 cycles:   18596078 heartbeat IPC: 1.80315 cumulative IPC: 2.74251 (Simulation time: 0 hr 1 min 32 sec) 
Heartbeat CPU  0 instructions:   52000000 cycles:   19152709 heartbeat IPC: 1.79652 cumulative IPC: 2.71502 (Simulation time: 0 hr 1 min 34 sec) 
Heartbeat CPU  0 instructions:   53000000 cycles:   19513861 heartbeat IPC: 2.76892 cumulative IPC: 2.71602 (Simulation time: 0 hr 1 min 36 sec) 
Heartbeat CPU  0 instructions:   54000002 cycles:   19875019 heartbeat IPC: 2.76888 cumulative IPC: 2.71698 (Simulation time: 0 hr 1 min 38 sec) 
Heartbeat CPU  0 instructions:   55000000 cycles:   20236132 heartbeat IPC: 2.76921 cumulative IPC: 2.71791 (Simulation time: 0 hr 1 min 40 sec) 
Heartbeat CPU  0 instructions:   56000000 cycles:   20597304 heartbeat IPC: 2.76876 cumulative IPC: 2.71880 (Simulation time: 0 hr 1 min 42 sec) 
Heartbeat CPU  0 instructions:   57000001 cycles:   20958438 heartbeat IPC: 2.76906 cumulative IPC: 2.71967 (Simulation time: 0 hr 1 min 43 sec) 
Heartbeat CPU  0 instructions:   58000002 cycles:   21319591 heartbeat IPC: 2.76891 cumulative IPC: 2.72050 (Simulation time: 0 hr 1 min 45 sec) 
Heartbeat CPU  0 instructions:   59000000 cycles:   21680724 heartbeat IPC: 2.76906 cumulative IPC: 2.72131 (Simulation time: 0 hr 1 min 47 sec) 
Heartbeat CPU  0 instructions:   60000000 cycles:   22041851 heartbeat IPC: 2.76911 cumulative IPC: 2.72209 (Simulation time: 0 hr 1 min 49 sec) 
Heartbeat CPU  0 instructions:   61000003 cycles:   22403030 heartbeat IPC: 2.76872 cumulative IPC: 2.72285 (Simulation time: 0 hr 1 min 51 sec) 
Heartbeat CPU  0 instructions:   62000003 cycles:   22764167 heartbeat IPC: 2.76903 cumulative IPC: 2.72358 (Simulation time: 0 hr 1 min 53 sec) 
Heartbeat CPU  0 instructions:   63000003 cycles:   23125306 heartbeat IPC: 2.76902 cumulative IPC: 2.72429 (Simulation time: 0 hr 1 min 54 sec) 
Heartbeat CPU  0 instructions:   64000000 cycles:   23486431 heartbeat IPC: 2.76912 cumulative IPC: 2.72498 (Simulation time: 0 hr 1 min 56 sec) 
Heartbeat CPU  0 instructions:   65000003 cycles:   23847610 heartbeat IPC: 2.76872 cumulative IPC: 2.72564 (Simulation time: 0 hr 1 min 58 sec) 
Heartbeat CPU  0 instructions:   66000001 cycles:   24208755 heartbeat IPC: 2.76897 cumulative IPC: 2.72629 (Simulation time: 0 hr 2 min 0 sec) 
Heartbeat CPU  0 instructions:   67000001 cycles:   24569908 heartbeat IPC: 2.76891 cumulative IPC: 2.72691 (Simulation time: 0 hr 2 min 2 sec) 
Heartbeat CPU  0 instructions:   68000000 cycles:   24931034 heartbeat IPC: 2.76911 cumulative IPC: 2.72752 (Simulation time: 0 hr 2 min 3 sec) 
Heartbeat CPU  0 instructions:   69000001 cycles:   25292170 heartbeat IPC: 2.76904 cumulative IPC: 2.72812 (Simulation time: 0 hr 2 min 5 sec) 
Heartbeat CPU  0 instructions:   70000002 cycles:   25653354 heartbeat IPC: 2.76867 cumulative IPC: 2.72869 (Simulation time: 0 hr 2 min 7 sec) 
Heartbeat CPU  0 instructions:   71000000 cycles:   26014470 heartbeat IPC: 2.76919 cumulative IPC: 2.72925 (Simulation time: 0 hr 2 min 9 sec) 
Heartbeat CPU  0 instructions:   72000000 cycles:   26375640 heartbeat IPC: 2.76878 cumulative IPC: 2.72979 (Simulation time: 0 hr 2 min 11 sec) 
Heartbeat CPU  0 instructions:   73000002 cycles:   26736782 heartbeat IPC: 2.76900 cumulative IPC: 2.73032 (Simulation time: 0 hr 2 min 13 sec) 
Heartbeat CPU  0 instructions:   74000003 cycles:   27097919 heartbeat IPC: 2.76904 cumulative IPC: 2.73084 (Simulation time: 0 hr 2 min 14 sec) 
Heartbeat CPU  0 instructions:   75000000 cycles:   27459074 heartbeat IPC: 2.76889 cumulative IPC: 2.73134 (Simulation time: 0 hr 2 min 16 sec) 
Heartbeat CPU  0 instructions:   76000000 cycles:   27820239 heartbeat IPC: 2.76882 cumulative IPC: 2.73182 (Simulation time: 0 hr 2 min 18 sec) 
Heartbeat CPU  0 instructions:   77000001 cycles:   28181390 heartbeat IPC: 2.76893 cumulative IPC: 2.73230 (Simulation time: 0 hr 2 min 20 sec) 
Heartbeat CPU  0 instructions:   78000000 cycles:   28542517 heartbeat IPC: 2.76911 cumulative IPC: 2.73277 (Simulation time: 0 hr 2 min 22 sec) 
Heartbeat CPU  0 instructions:   79000002 cycles:   28903667 heartbeat IPC: 2.76894 cumulative IPC: 2.73322 (Simulation time: 0 hr 2 min 23 sec) 
Heartbeat CPU  0 instructions:   80000000 cycles:   29264788 heartbeat IPC: 2.76915 cumulative IPC: 2.73366 (Simulation time: 0 hr 2 min 25 sec) 
Heartbeat CPU  0 instructions:   81000001 cycles:   29625978 heartbeat IPC: 2.76863 cumulative IPC: 2.73409 (Simulation time: 0 hr 2 min 27 sec) 
Heartbeat CPU  0 instructions:   82000000 cycles:   29987082 heartbeat IPC: 2.76928 cumulative IPC: 2.73451 (Simulation time: 0 hr 2 min 29 sec) 
Heartbeat CPU  0 instructions:   83000002 cycles:   30348233 heartbeat IPC: 2.76893 cumulative IPC: 2.73492 (Simulation time: 0 hr 2 min 31 sec) 
Heartbeat CPU  0 instructions:   84000000 cycles:   30709361 heartbeat IPC: 2.76910 cumulative IPC: 2.73532 (Simulation time: 0 hr 2 min 32 sec) 
Heartbeat CPU  0 instructions:   85000000 cycles:   31070527 heartbeat IPC: 2.76881 cumulative IPC: 2.73571 (Simulation time: 0 hr 2 min 34 sec) 
Heartbeat CPU  0 instructions:   86000002 cycles:   31431658 heartbeat IPC: 2.76908 cumulative IPC: 2.73609 (Simulation time: 0 hr 2 min 36 sec) 
Heartbeat CPU  0 instructions:   87000002 cycles:   31792791 heartbeat IPC: 2.76906 cumulative IPC: 2.73647 (Simulation time: 0 hr 2 min 38 sec) 
Heartbeat CPU  0 instructions:   88000000 cycles:   32153934 heartbeat IPC: 2.76898 cumulative IPC: 2.73683 (Simulation time: 0 hr 2 min 40 sec) 
Heartbeat CPU  0 instructions:   89000000 cycles:   32515098 heartbeat IPC: 2.76883 cumulative IPC: 2.73719 (Simulation time: 0 hr 2 min 42 sec) 
Heartbeat CPU  0 instructions:   90000002 cycles:   32876250 heartbeat IPC: 2.76892 cumulative IPC: 2.73754 (Simulation time: 0 hr 2 min 43 sec) 
Heartbeat CPU  0 instructions:   91000000 cycles:   33237382 heartbeat IPC: 2.76907 cumulative IPC: 2.73788 (Simulation time: 0 hr 2 min 45 sec) 
Heartbeat CPU  0 instructions:   92000000 cycles:   33598555 heartbeat IPC: 2.76876 cumulative IPC: 2.73821 (Simulation time: 0 hr 2 min 47 sec) 
Heartbeat CPU  0 instructions:   93000001 cycles:   33959687 heartbeat IPC: 2.76907 cumulative IPC: 2.73854 (Simulation time: 0 hr 2 min 49 sec) 
Heartbeat CPU  0 instructions:   94000002 cycles:   34320843 heartbeat IPC: 2.76889 cumulative IPC: 2.73886 (Simulation time: 0 hr 2 min 51 sec) 
Heartbeat CPU  0 instructions:   95000000 cycles:   34681984 heartbeat IPC: 2.76900 cumulative IPC: 2.73917 (Simulation time: 0 hr 2 min 53 sec) 
Heartbeat CPU  0 instructions:   96000000 cycles:   35043116 heartbeat IPC: 2.76907 cumulative IPC: 2.73948 (Simulation time: 0 hr 2 min 54 sec) 
Heartbeat CPU  0 instructions:   97000003 cycles:   35404290 heartbeat IPC: 2.76876 cumulative IPC: 2.73978 (Simulation time: 0 hr 2 min 56 sec) 
Heartbeat CPU  0 instructions:   98000003 cycles:   35765428 heartbeat IPC: 2.76902 cumulative IPC: 2.74008 (Simulation time: 0 hr 2 min 58 sec) 
Heartbeat CPU  0 instructions:   99000003 cycles:   36126571 heartbeat IPC: 2.76899 cumulative IPC: 2.74037 (Simulation time: 0 hr 3 min 0 sec) 
Heartbeat CPU  0 instructions:  100000000 cycles:   36487699 heartbeat IPC: 2.76909 cumulative IPC: 2.74065 (Simulation time: 0 hr 3 min 2 sec) 

Warmup complete CPU  0 instructions:  100000003 cycles:   36487710 (Simulation time: 0 hr 3 min 2 sec) 

Heartbeat CPU  0 instructions:  101000003 cycles:   38055317 heartbeat IPC: 0.63791 cumulative IPC: 0.63792 (Simulation time: 0 hr 3 min 4 sec) 
Heartbeat CPU  0 instructions:  102000000 cycles:   39611682 heartbeat IPC: 0.64252 cumulative IPC: 0.64021 (Simulation time: 0 hr 3 min 7 sec) 
Heartbeat CPU  0 instructions:  103000001 cycles:   41177029 heartbeat IPC: 0.63884 cumulative IPC: 0.63975 (Simulation time: 0 hr 3 min 10 sec) 
Heartbeat CPU  0 instructions:  104000000 cycles:   42733288 heartbeat IPC: 0.64257 cumulative IPC: 0.64045 (Simulation time: 0 hr 3 min 12 sec) 
Heartbeat CPU  0 instructions:  105000002 cycles:   44297343 heartbeat IPC: 0.63936 cumulative IPC: 0.64023 (Simulation time: 0 hr 3 min 15 sec) 
Heartbeat CPU  0 instructions:  106000002 cycles:   45856791 heartbeat IPC: 0.64125 cumulative IPC: 0.64040 (Simulation time: 0 hr 3 min 17 sec) 
Heartbeat CPU  0 instructions:  107000003 cycles:   47417894 heartbeat IPC: 0.64057 cumulative IPC: 0.64043 (Simulation time: 0 hr 3 min 20 sec) 
Heartbeat CPU  0 instructions:  108000000 cycles:   48981359 heartbeat IPC: 0.63960 cumulative IPC: 0.64033 (Simulation time: 0 hr 3 min 23 sec) 
Heartbeat CPU  0 instructions:  109000002 cycles:   50544631 heartbeat IPC: 0.63969 cumulative IPC: 0.64025 (Simulation time: 0 hr 3 min 25 sec) 
Heartbeat CPU  0 instructions:  110000000 cycles:   52083949 heartbeat IPC: 0.64964 cumulative IPC: 0.64118 (Simulation time: 0 hr 3 min 28 sec) 
Heartbeat CPU  0 instructions:  111000001 cycles:   53585036 heartbeat IPC: 0.66618 cumulative IPC: 0.64338 (Simulation time: 0 hr 3 min 31 sec) 
Heartbeat CPU  0 instructions:  112000000 cycles:   55091199 heartbeat IPC: 0.66394 cumulative IPC: 0.64504 (Simulation time: 0 hr 3 min 33 sec) 
Heartbeat CPU  0 instructions:  113000003 cycles:   56588124 heartbeat IPC: 0.66804 cumulative IPC: 0.64675 (Simulation time: 0 hr 3 min 36 sec) 
Heartbeat CPU  0 instructions:  114000000 cycles:   58097877 heartbeat IPC: 0.66236 cumulative IPC: 0.64784 (Simulation time: 0 hr 3 min 38 sec) 
Heartbeat CPU  0 instructions:  115000002 cycles:   59594777 heartbeat IPC: 0.66805 cumulative IPC: 0.64915 (Simulation time: 0 hr 3 min 41 sec) 
Heartbeat CPU  0 instructions:  116000000 cycles:   61097332 heartbeat IPC: 0.66553 cumulative IPC: 0.65015 (Simulation time: 0 hr 3 min 44 sec) 
Heartbeat CPU  0 instructions:  117000003 cycles:   62602977 heartbeat IPC: 0.66417 cumulative IPC: 0.65096 (Simulation time: 0 hr 3 min 46 sec) 
Heartbeat CPU  0 instructions:  118000003 cycles:   64112600 heartbeat IPC: 0.66242 cumulative IPC: 0.65159 (Simulation time: 0 hr 3 min 49 sec) 
Heartbeat CPU  0 instructions:  119000002 cycles:   65610571 heartbeat IPC: 0.66757 cumulative IPC: 0.65241 (Simulation time: 0 hr 3 min 51 sec) 
Heartbeat CPU  0 instructions:  120000000 cycles:   67111388 heartbeat IPC: 0.66630 cumulative IPC: 0.65309 (Simulation time: 0 hr 3 min 54 sec) 
Heartbeat CPU  0 instructions:  121000001 cycles:   68620013 heartbeat IPC: 0.66286 cumulative IPC: 0.65355 (Simulation time: 0 hr 3 min 57 sec) 
Heartbeat CPU  0 instructions:  122000001 cycles:   70122854 heartbeat IPC: 0.66541 cumulative IPC: 0.65408 (Simulation time: 0 hr 3 min 59 sec) 
Heartbeat CPU  0 instructions:  123000002 cycles:   71629459 heartbeat IPC: 0.66374 cumulative IPC: 0.65449 (Simulation time: 0 hr 4 min 2 sec) 
Heartbeat CPU  0 instructions:  124000000 cycles:   73157931 heartbeat IPC: 0.65425 cumulative IPC: 0.65448 (Simulation time: 0 hr 4 min 4 sec) 
Heartbeat CPU  0 instructions:  125000000 cycles:   74858686 heartbeat IPC: 0.58797 cumulative IPC: 0.65153 (Simulation time: 0 hr 4 min 8 sec) 
Heartbeat CPU  0 instructions:  126000001 cycles:   76432903 heartbeat IPC: 0.63524 cumulative IPC: 0.65089 (Simulation time: 0 hr 4 min 11 sec) 
Heartbeat CPU  0 instructions:  127000001 cycles:   77734153 heartbeat IPC: 0.76849 cumulative IPC: 0.65460 (Simulation time: 0 hr 4 min 14 sec) 
Heartbeat CPU  0 instructions:  128000000 cycles:   79000172 heartbeat IPC: 0.78988 cumulative IPC: 0.65863 (Simulation time: 0 hr 4 min 16 sec) 
Heartbeat CPU  0 instructions:  129000000 cycles:   80262429 heartbeat IPC: 0.79223 cumulative IPC: 0.66248 (Simulation time: 0 hr 4 min 19 sec) 
Heartbeat CPU  0 instructions:  130000002 cycles:   81539184 heartbeat IPC: 0.78324 cumulative IPC: 0.66590 (Simulation time: 0 hr 4 min 22 sec) 
Heartbeat CPU  0 instructions:  131000001 cycles:   82778772 heartbeat IPC: 0.80672 cumulative IPC: 0.66968 (Simulation time: 0 hr 4 min 24 sec) 
Heartbeat CPU  0 instructions:  132000000 cycles:   84007713 heartbeat IPC: 0.81371 cumulative IPC: 0.67340 (Simulation time: 0 hr 4 min 27 sec) 
Heartbeat CPU  0 instructions:  133000001 cycles:   85223723 heartbeat IPC: 0.82236 cumulative IPC: 0.67712 (Simulation time: 0 hr 4 min 29 sec) 
Heartbeat CPU  0 instructions:  134000000 cycles:   86445556 heartbeat IPC: 0.81844 cumulative IPC: 0.68057 (Simulation time: 0 hr 4 min 32 sec) 
Heartbeat CPU  0 instructions:  135000002 cycles:   87659934 heartbeat IPC: 0.82347 cumulative IPC: 0.68396 (Simulation time: 0 hr 4 min 34 sec) 
Heartbeat CPU  0 instructions:  136000000 cycles:   88881249 heartbeat IPC: 0.81879 cumulative IPC: 0.68711 (Simulation time: 0 hr 4 min 37 sec) 
Heartbeat CPU  0 instructions:  137000001 cycles:   90101794 heartbeat IPC: 0.81931 cumulative IPC: 0.69012 (Simulation time: 0 hr 4 min 39 sec) 
Heartbeat CPU  0 instructions:  138000003 cycles:   91320302 heartbeat IPC: 0.82068 cumulative IPC: 0.69302 (Simulation time: 0 hr 4 min 42 sec) 
Heartbeat CPU  0 instructions:  139000002 cycles:   92538495 heartbeat IPC: 0.82089 cumulative IPC: 0.69580 (Simulation time: 0 hr 4 min 44 sec) 
Heartbeat CPU  0 instructions:  140000000 cycles:   93757765 heartbeat IPC: 0.82016 cumulative IPC: 0.69845 (Simulation time: 0 hr 4 min 47 sec) 
Heartbeat CPU  0 instructions:  141000002 cycles:   94972654 heartbeat IPC: 0.82312 cumulative IPC: 0.70104 (Simulation time: 0 hr 4 min 49 sec) 
Heartbeat CPU  0 instructions:  142000003 cycles:   96197646 heartbeat IPC: 0.81633 cumulative IPC: 0.70340 (Simulation time: 0 hr 4 min 52 sec) 
Heartbeat CPU  0 instructions:  143000003 cycles:   97418837 heartbeat IPC: 0.81887 cumulative IPC: 0.70571 (Simulation time: 0 hr 4 min 54 sec) 
Heartbeat CPU  0 instructions:  144000000 cycles:   98639310 heartbeat IPC: 0.81935 cumulative IPC: 0.70795 (Simulation time: 0 hr 4 min 57 sec) 
Heartbeat CPU  0 instructions:  145000003 cycles:   99856368 heartbeat IPC: 0.82166 cumulative IPC: 0.71013 (Simulation time: 0 hr 4 min 59 sec) 
Heartbeat CPU  0 instructions:  146000001 cycles:  101073552 heartbeat IPC: 0.82157 cumulative IPC: 0.71223 (Simulation time: 0 hr 5 min 2 sec) 
Heartbeat CPU  0 instructions:  147000000 cycles:  102288927 heartbeat IPC: 0.82279 cumulative IPC: 0.71427 (Simulation time: 0 hr 5 min 4 sec) 
Heartbeat CPU  0 instructions:  148000000 cycles:  103510084 heartbeat IPC: 0.81890 cumulative IPC: 0.71618 (Simulation time: 0 hr 5 min 7 sec) 
Heartbeat CPU  0 instructions:  149000001 cycles:  104722994 heartbeat IPC: 0.82446 cumulative IPC: 0.71810 (Simulation time: 0 hr 5 min 9 sec) 
Heartbeat CPU  0 instructions:  150000001 cycles:  105935585 heartbeat IPC: 0.82468 cumulative IPC: 0.71996 (Simulation time: 0 hr 5 min 12 sec) 
Heartbeat CPU  0 instructions:  151000000 cycles:  107161300 heartbeat IPC: 0.81585 cumulative IPC: 0.72163 (Simulation time: 0 hr 5 min 14 sec) 
Heartbeat CPU  0 instructions:  152000000 cycles:  108379528 heartbeat IPC: 0.82086 cumulative IPC: 0.72331 (Simulation time: 0 hr 5 min 17 sec) 
Heartbeat CPU  0 instructions:  153000003 cycles:  109598735 heartbeat IPC: 0.82021 cumulative IPC: 0.72492 (Simulation time: 0 hr 5 min 19 sec) 
Heartbeat CPU  0 instructions:  154000001 cycles:  110819834 heartbeat IPC: 0.81893 cumulative IPC: 0.72647 (Simulation time: 0 hr 5 min 22 sec) 
Heartbeat CPU  0 instructions:  155000000 cycles:  112046224 heartbeat IPC: 0.81540 cumulative IPC: 0.72791 (Simulation time: 0 hr 5 min 24 sec) 
Heartbeat CPU  0 instructions:  156000000 cycles:  113262864 heartbeat IPC: 0.82194 cumulative IPC: 0.72940 (Simulation time: 0 hr 5 min 27 sec) 
Heartbeat CPU  0 instructions:  157000000 cycles:  114484768 heartbeat IPC: 0.81839 cumulative IPC: 0.73080 (Simulation time: 0 hr 5 min 29 sec) 
Heartbeat CPU  0 instructions:  158000002 cycles:  115695188 heartbeat IPC: 0.82616 cumulative IPC: 0.73225 (Simulation time: 0 hr 5 min 32 sec) 
Heartbeat CPU  0 instructions:  159000002 cycles:  116914665 heartbeat IPC: 0.82002 cumulative IPC: 0.73358 (Simulation time: 0 hr 5 min 34 sec) 
Heartbeat CPU  0 instructions:  160000000 cycles:  118109650 heartbeat IPC: 0.83683 cumulative IPC: 0.73510 (Simulation time: 0 hr 5 min 37 sec) 
Heartbeat CPU  0 instructions:  161000000 cycles:  119255627 heartbeat IPC: 0.87262 cumulative IPC: 0.73700 (Simulation time: 0 hr 5 min 39 sec) 
Heartbeat CPU  0 instructions:  162000003 cycles:  120398604 heartbeat IPC: 0.87491 cumulative IPC: 0.73888 (Simulation time: 0 hr 5 min 41 sec) 
Heartbeat CPU  0 instructions:  163000000 cycles:  121611871 heartbeat IPC: 0.82422 cumulative IPC: 0.74010 (Simulation time: 0 hr 5 min 44 sec) 
Heartbeat CPU  0 instructions:  164000000 cycles:  122827801 heartbeat IPC: 0.82242 cumulative IPC: 0.74125 (Simulation time: 0 hr 5 min 47 sec) 
Heartbeat CPU  0 instructions:  165000001 cycles:  124051247 heartbeat IPC: 0.81736 cumulative IPC: 0.74232 (Simulation time: 0 hr 5 min 49 sec) 
Heartbeat CPU  0 instructions:  166000001 cycles:  125269996 heartbeat IPC: 0.82051 cumulative IPC: 0.74339 (Simulation time: 0 hr 5 min 52 sec) 
Heartbeat CPU  0 instructions:  167000003 cycles:  126492775 heartbeat IPC: 0.81781 cumulative IPC: 0.74440 (Simulation time: 0 hr 5 min 54 sec) 
Heartbeat CPU  0 instructions:  168000000 cycles:  127713804 heartbeat IPC: 0.81898 cumulative IPC: 0.74540 (Simulation time: 0 hr 5 min 57 sec) 
Heartbeat CPU  0 instructions:  169000002 cycles:  128928713 heartbeat IPC: 0.82311 cumulative IPC: 0.74642 (Simulation time: 0 hr 5 min 59 sec) 
Heartbeat CPU  0 instructions:  170000001 cycles:  130144736 heartbeat IPC: 0.82235 cumulative IPC: 0.74741 (Simulation time: 0 hr 6 min 1 sec) 
Heartbeat CPU  0 instructions:  171000000 cycles:  131357401 heartbeat IPC: 0.82463 cumulative IPC: 0.74839 (Simulation time: 0 hr 6 min 4 sec) 
Heartbeat CPU  0 instructions:  172000000 cycles:  132577610 heartbeat IPC: 0.81953 cumulative IPC: 0.74930 (Simulation time: 0 hr 6 min 6 sec) 
Heartbeat CPU  0 instructions:  173000003 cycles:  133798209 heartbeat IPC: 0.81927 cumulative IPC: 0.75018 (Simulation time: 0 hr 6 min 9 sec) 
Heartbeat CPU  0 instructions:  174000001 cycles:  135018866 heartbeat IPC: 0.81923 cumulative IPC: 0.75103 (Simulation time: 0 hr 6 min 11 sec) 
Heartbeat CPU  0 instructions:  175000002 cycles:  136241172 heartbeat IPC: 0.81813 cumulative IPC: 0.75185 (Simulation time: 0 hr 6 min 14 sec) 
Heartbeat CPU  0 instructions:  176000000 cycles:  137467177 heartbeat IPC: 0.81566 cumulative IPC: 0.75263 (Simulation time: 0 hr 6 min 16 sec) 
Heartbeat CPU  0 instructions:  177000000 cycles:  138680469 heartbeat IPC: 0.82420 cumulative IPC: 0.75348 (Simulation time: 0 hr 6 min 19 sec) 
Heartbeat CPU  0 instructions:  178000002 cycles:  139906799 heartbeat IPC: 0.81544 cumulative IPC: 0.75421 (Simulation time: 0 hr 6 min 21 sec) 
Heartbeat CPU  0 instructions:  179000001 cycles:  141132280 heartbeat IPC: 0.81601 cumulative IPC: 0.75494 (Simulation time: 0 hr 6 min 24 sec) 
Heartbeat CPU  0 instructions:  180000000 cycles:  142355972 heartbeat IPC: 0.81720 cumulative IPC: 0.75566 (Simulation time: 0 hr 6 min 26 sec) 
Heartbeat CPU  0 instructions:  181000000 cycles:  143565994 heartbeat IPC: 0.82643 cumulative IPC: 0.75646 (Simulation time: 0 hr 6 min 29 sec) 
Heartbeat CPU  0 instructions:  182000000 cycles:  144788615 heartbeat IPC: 0.81791 cumulative IPC: 0.75715 (Simulation time: 0 hr 6 min 31 sec) 
Heartbeat CPU  0 instructions:  183000002 cycles:  146009433 heartbeat IPC: 0.81912 cumulative IPC: 0.75784 (Simulation time: 0 hr 6 min 34 sec) 
Heartbeat CPU  0 instructions:  184000000 cycles:  147231206 heartbeat IPC: 0.81848 cumulative IPC: 0.75851 (Simulation time: 0 hr 6 min 37 sec) 
Heartbeat CPU  0 instructions:  185000001 cycles:  148455382 heartbeat IPC: 0.81688 cumulative IPC: 0.75915 (Simulation time: 0 hr 6 min 39 sec) 
Heartbeat CPU  0 instructions:  186000002 cycles:  149670669 heartbeat IPC: 0.82285 cumulative IPC: 0.75983 (Simulation time: 0 hr 6 min 42 sec) 
Heartbeat CPU  0 instructions:  187000000 cycles:  150889755 heartbeat IPC: 0.82029 cumulative IPC: 0.76048 (Simulation time: 0 hr 6 min 44 sec) 
Heartbeat CPU  0 instructions:  188000000 cycles:  152107875 heartbeat IPC: 0.82094 cumulative IPC: 0.76111 (Simulation time: 0 hr 6 min 47 sec) 
Heartbeat CPU  0 instructions:  189000002 cycles:  153330847 heartbeat IPC: 0.81768 cumulative IPC: 0.76170 (Simulation time: 0 hr 6 min 49 sec) 
Heartbeat CPU  0 instructions:  190000000 cycles:  154545010 heartbeat IPC: 0.82361 cumulative IPC: 0.76234 (Simulation time: 0 hr 6 min 52 sec) 
Heartbeat CPU  0 instructions:  191000003 cycles:  155767186 heartbeat IPC: 0.81822 cumulative IPC: 0.76291 (Simulation time: 0 hr 6 min 54 sec) 
Heartbeat CPU  0 instructions:  192000000 cycles:  156989112 heartbeat IPC: 0.81838 cumulative IPC: 0.76348 (Simulation time: 0 hr 6 min 57 sec) 
Heartbeat CPU  0 instructions:  193000003 cycles:  158199940 heartbeat IPC: 0.82588 cumulative IPC: 0.76410 (Simulation time: 0 hr 6 min 59 sec) 
Heartbeat CPU  0 instructions:  194000000 cycles:  159421146 heartbeat IPC: 0.81886 cumulative IPC: 0.76464 (Simulation time: 0 hr 7 min 1 sec) 
Heartbeat CPU  0 instructions:  195000003 cycles:  160631452 heartbeat IPC: 0.82624 cumulative IPC: 0.76524 (Simulation time: 0 hr 7 min 4 sec) 
Heartbeat CPU  0 instructions:  196000000 cycles:  161854574 heartbeat IPC: 0.81758 cumulative IPC: 0.76575 (Simulation time: 0 hr 7 min 6 sec) 
Heartbeat CPU  0 instructions:  197000003 cycles:  163075670 heartbeat IPC: 0.81894 cumulative IPC: 0.76627 (Simulation time: 0 hr 7 min 9 sec) 
Heartbeat CPU  0 instructions:  198000000 cycles:  164782497 heartbeat IPC: 0.58588 cumulative IPC: 0.76387 (Simulation time: 0 hr 7 min 12 sec) 
Heartbeat CPU  0 instructions:  199000003 cycles:  166752093 heartbeat IPC: 0.50772 cumulative IPC: 0.75999 (Simulation time: 0 hr 7 min 15 sec) 
Heartbeat CPU  0 instructions:  200000000 cycles:  168724862 heartbeat IPC: 0.50690 cumulative IPC: 0.75622 (Simulation time: 0 hr 7 min 19 sec) 
Heartbeat CPU  0 instructions:  201000001 cycles:  170694767 heartbeat IPC: 0.50764 cumulative IPC: 0.75257 (Simulation time: 0 hr 7 min 22 sec) 
Heartbeat CPU  0 instructions:  202000000 cycles:  172663271 heartbeat IPC: 0.50800 cumulative IPC: 0.74903 (Simulation time: 0 hr 7 min 26 sec) 
Heartbeat CPU  0 instructions:  203000003 cycles:  174634465 heartbeat IPC: 0.50731 cumulative IPC: 0.74558 (Simulation time: 0 hr 7 min 29 sec) 
Heartbeat CPU  0 instructions:  204000000 cycles:  176603108 heartbeat IPC: 0.50796 cumulative IPC: 0.74225 (Simulation time: 0 hr 7 min 32 sec) 
Heartbeat CPU  0 instructions:  205000001 cycles:  178569754 heartbeat IPC: 0.50848 cumulative IPC: 0.73901 (Simulation time: 0 hr 7 min 36 sec) 
Heartbeat CPU  0 instructions:  206000000 cycles:  180536246 heartbeat IPC: 0.50852 cumulative IPC: 0.73586 (Simulation time: 0 hr 7 min 39 sec) 
Heartbeat CPU  0 instructions:  207000003 cycles:  182503347 heartbeat IPC: 0.50836 cumulative IPC: 0.73280 (Simulation time: 0 hr 7 min 43 sec) 
Heartbeat CPU  0 instructions:  208000000 cycles:  184469965 heartbeat IPC: 0.50849 cumulative IPC: 0.72982 (Simulation time: 0 hr 7 min 46 sec) 
Heartbeat CPU  0 instructions:  209000001 cycles:  186442166 heartbeat IPC: 0.50705 cumulative IPC: 0.72689 (Simulation time: 0 hr 7 min 49 sec) 
Heartbeat CPU  0 instructions:  210000000 cycles:  188413589 heartbeat IPC: 0.50725 cumulative IPC: 0.72404 (Simulation time: 0 hr 7 min 53 sec) 
Heartbeat CPU  0 instructions:  211000003 cycles:  190385152 heartbeat IPC: 0.50721 cumulative IPC: 0.72126 (Simulation time: 0 hr 7 min 56 sec) 
Heartbeat CPU  0 instructions:  212000000 cycles:  192356778 heartbeat IPC: 0.50719 cumulative IPC: 0.71855 (Simulation time: 0 hr 8 min 0 sec) 
Heartbeat CPU  0 instructions:  213000001 cycles:  194333514 heartbeat IPC: 0.50588 cumulative IPC: 0.71589 (Simulation time: 0 hr 8 min 3 sec) 
Heartbeat CPU  0 instructions:  214000000 cycles:  196304868 heartbeat IPC: 0.50727 cumulative IPC: 0.71332 (Simulation time: 0 hr 8 min 6 sec) 
Heartbeat CPU  0 instructions:  215000003 cycles:  198275486 heartbeat IPC: 0.50746 cumulative IPC: 0.71081 (Simulation time: 0 hr 8 min 10 sec) 
Heartbeat CPU  0 instructions:  216000000 cycles:  200248211 heartbeat IPC: 0.50691 cumulative IPC: 0.70835 (Simulation time: 0 hr 8 min 13 sec) 
Heartbeat CPU  0 instructions:  217000001 cycles:  202215339 heartbeat IPC: 0.50836 cumulative IPC: 0.70598 (Simulation time: 0 hr 8 min 17 sec) 
Heartbeat CPU  0 instructions:  218000000 cycles:  204184367 heartbeat IPC: 0.50786 cumulative IPC: 0.70365 (Simulation time: 0 hr 8 min 20 sec) 
Heartbeat CPU  0 instructions:  219000003 cycles:  206156562 heartbeat IPC: 0.50705 cumulative IPC: 0.70137 (Simulation time: 0 hr 8 min 24 sec) 
Heartbeat CPU  0 instructions:  220000000 cycles:  208125539 heartbeat IPC: 0.50788 cumulative IPC: 0.69915 (Simulation time: 0 hr 8 min 27 sec) 
Heartbeat CPU  0 instructions:  221000001 cycles:  210096431 heartbeat IPC: 0.50738 cumulative IPC: 0.69697 (Simulation time: 0 hr 8 min 30 sec) 
Heartbeat CPU  0 instructions:  222000000 cycles:  212074829 heartbeat IPC: 0.50546 cumulative IPC: 0.69481 (Simulation time: 0 hr 8 min 34 sec) 
Heartbeat CPU  0 instructions:  223000003 cycles:  214042074 heartbeat IPC: 0.50833 cumulative IPC: 0.69275 (Simulation time: 0 hr 8 min 37 sec) 
Heartbeat CPU  0 instructions:  224000000 cycles:  216014900 heartbeat IPC: 0.50689 cumulative IPC: 0.69070 (Simulation time: 0 hr 8 min 41 sec) 
Heartbeat CPU  0 instructions:  225000001 cycles:  217991246 heartbeat IPC: 0.50598 cumulative IPC: 0.68869 (Simulation time: 0 hr 8 min 44 sec) 
Heartbeat CPU  0 instructions:  226000000 cycles:  219962108 heartbeat IPC: 0.50739 cumulative IPC: 0.68674 (Simulation time: 0 hr 8 min 47 sec) 
Heartbeat CPU  0 instructions:  227000003 cycles:  221931890 heartbeat IPC: 0.50767 cumulative IPC: 0.68484 (Simulation time: 0 hr 8 min 51 sec) 
Heartbeat CPU  0 instructions:  228000000 cycles:  223907463 heartbeat IPC: 0.50618 cumulative IPC: 0.68296 (Simulation time: 0 hr 8 min 54 sec) 
Heartbeat CPU  0 instructions:  229000001 cycles:  225877044 heartbeat IPC: 0.50772 cumulative IPC: 0.68114 (Simulation time: 0 hr 8 min 58 sec) 
Heartbeat CPU  0 instructions:  230000000 cycles:  227844801 heartbeat IPC: 0.50819 cumulative IPC: 0.67936 (Simulation time: 0 hr 9 min 1 sec) 
Heartbeat CPU  0 instructions:  231000003 cycles:  229811509 heartbeat IPC: 0.50847 cumulative IPC: 0.67762 (Simulation time: 0 hr 9 min 4 sec) 
Heartbeat CPU  0 instructions:  232000000 cycles:  231784284 heartbeat IPC: 0.50690 cumulative IPC: 0.67590 (Simulation time: 0 hr 9 min 8 sec) 
Heartbeat CPU  0 instructions:  233000003 cycles:  233754341 heartbeat IPC: 0.50760 cumulative IPC: 0.67421 (Simulation time: 0 hr 9 min 11 sec) 
Heartbeat CPU  0 instructions:  234000000 cycles:  235724899 heartbeat IPC: 0.50747 cumulative IPC: 0.67257 (Simulation time: 0 hr 9 min 15 sec) 
Heartbeat CPU  0 instructions:  235000001 cycles:  238532884 heartbeat IPC: 0.35613 cumulative IPC: 0.66817 (Simulation time: 0 hr 9 min 19 sec) 
Heartbeat CPU  0 instructions:  236000000 cycles:  242200280 heartbeat IPC: 0.27267 cumulative IPC: 0.66112 (Simulation time: 0 hr 9 min 24 sec) 
Heartbeat CPU  0 instructions:  237000001 cycles:  245866927 heartbeat IPC: 0.27273 cumulative IPC: 0.65432 (Simulation time: 0 hr 9 min 29 sec) 
Heartbeat CPU  0 instructions:  238000003 cycles:  249518553 heartbeat IPC: 0.27385 cumulative IPC: 0.64779 (Simulation time: 0 hr 9 min 34 sec) 
Heartbeat CPU  0 instructions:  239000002 cycles:  253218999 heartbeat IPC: 0.27024 cumulative IPC: 0.64135 (Simulation time: 0 hr 9 min 39 sec) 
Heartbeat CPU  0 instructions:  240000000 cycles:  256927889 heartbeat IPC: 0.26962 cumulative IPC: 0.63509 (Simulation time: 0 hr 9 min 44 sec) 
Heartbeat CPU  0 instructions:  241000002 cycles:  260614188 heartbeat IPC: 0.27128 cumulative IPC: 0.62911 (Simulation time: 0 hr 9 min 49 sec) 
Heartbeat CPU  0 instructions:  242000002 cycles:  264301434 heartbeat IPC: 0.27121 cumulative IPC: 0.62332 (Simulation time: 0 hr 9 min 54 sec) 
Heartbeat CPU  0 instructions:  243000001 cycles:  267999966 heartbeat IPC: 0.27038 cumulative IPC: 0.61768 (Simulation time: 0 hr 9 min 59 sec) 
Heartbeat CPU  0 instructions:  244000000 cycles:  271706527 heartbeat IPC: 0.26979 cumulative IPC: 0.61220 (Simulation time: 0 hr 10 min 5 sec) 
Heartbeat CPU  0 instructions:  245000002 cycles:  275399702 heartbeat IPC: 0.27077 cumulative IPC: 0.60692 (Simulation time: 0 hr 10 min 10 sec) 
Heartbeat CPU  0 instructions:  246000001 cycles:  279079563 heartbeat IPC: 0.27175 cumulative IPC: 0.60183 (Simulation time: 0 hr 10 min 15 sec) 
Heartbeat CPU  0 instructions:  247000002 cycles:  281761937 heartbeat IPC: 0.37280 cumulative IPC: 0.59933 (Simulation time: 0 hr 10 min 19 sec) 
Heartbeat CPU  0 instructions:  248000000 cycles:  283470152 heartbeat IPC: 0.58541 cumulative IPC: 0.59923 (Simulation time: 0 hr 10 min 22 sec) 
Heartbeat CPU  0 instructions:  249000003 cycles:  284869782 heartbeat IPC: 0.71448 cumulative IPC: 0.59988 (Simulation time: 0 hr 10 min 25 sec) 
Heartbeat CPU  0 instructions:  250000000 cycles:  286260871 heartbeat IPC: 0.71886 cumulative IPC: 0.60054 (Simulation time: 0 hr 10 min 27 sec) 
Heartbeat CPU  0 instructions:  251000000 cycles:  287682027 heartbeat IPC: 0.70365 cumulative IPC: 0.60113 (Simulation time: 0 hr 10 min 30 sec) 
Heartbeat CPU  0 instructions:  252000000 cycles:  289110554 heartbeat IPC: 0.70002 cumulative IPC: 0.60169 (Simulation time: 0 hr 10 min 32 sec) 
Heartbeat CPU  0 instructions:  253000001 cycles:  290542445 heartbeat IPC: 0.69838 cumulative IPC: 0.60223 (Simulation time: 0 hr 10 min 35 sec) 
Heartbeat CPU  0 instructions:  254000002 cycles:  291974726 heartbeat IPC: 0.69819 cumulative IPC: 0.60277 (Simulation time: 0 hr 10 min 38 sec) 
Heartbeat CPU  0 instructions:  255000002 cycles:  293409329 heartbeat IPC: 0.69706 cumulative IPC: 0.60330 (Simulation time: 0 hr 10 min 40 sec) 
Heartbeat CPU  0 instructions:  256000000 cycles:  294841663 heartbeat IPC: 0.69816 cumulative IPC: 0.60382 (Simulation time: 0 hr 10 min 43 sec) 
Heartbeat CPU  0 instructions:  257000003 cycles:  296275360 heartbeat IPC: 0.69750 cumulative IPC: 0.60434 (Simulation time: 0 hr 10 min 45 sec) 
Heartbeat CPU  0 instructions:  258000003 cycles:  297709134 heartbeat IPC: 0.69746 cumulative IPC: 0.60485 (Simulation time: 0 hr 10 min 48 sec) 
Heartbeat CPU  0 instructions:  259000003 cycles:  299144428 heartbeat IPC: 0.69672 cumulative IPC: 0.60535 (Simulation time: 0 hr 10 min 50 sec) 
Heartbeat CPU  0 instructions:  260000000 cycles:  300579306 heartbeat IPC: 0.69692 cumulative IPC: 0.60585 (Simulation time: 0 hr 10 min 53 sec) 
Heartbeat CPU  0 instructions:  261000003 cycles:  302010059 heartbeat IPC: 0.69893 cumulative IPC: 0.60635 (Simulation time: 0 hr 10 min 55 sec) 
Heartbeat CPU  0 instructions:  262000001 cycles:  303447310 heartbeat IPC: 0.69577 cumulative IPC: 0.60683 (Simulation time: 0 hr 10 min 58 sec) 
Heartbeat CPU  0 instructions:  263000002 cycles:  304881185 heartbeat IPC: 0.69741 cumulative IPC: 0.60732 (Simulation time: 0 hr 11 min 0 sec) 
Heartbeat CPU  0 instructions:  264000000 cycles:  306314634 heartbeat IPC: 0.69762 cumulative IPC: 0.60780 (Simulation time: 0 hr 11 min 3 sec) 
Heartbeat CPU  0 instructions:  265000000 cycles:  307751745 heartbeat IPC: 0.69584 cumulative IPC: 0.60826 (Simulation time: 0 hr 11 min 5 sec) 
Heartbeat CPU  0 instructions:  266000001 cycles:  309186169 heartbeat IPC: 0.69714 cumulative IPC: 0.60873 (Simulation time: 0 hr 11 min 8 sec) 
Heartbeat CPU  0 instructions:  267000003 cycles:  310618365 heartbeat IPC: 0.69823 cumulative IPC: 0.60920 (Simulation time: 0 hr 11 min 10 sec) 
Heartbeat CPU  0 instructions:  268000000 cycles:  312052896 heartbeat IPC: 0.69709 cumulative IPC: 0.60966 (Simulation time: 0 hr 11 min 13 sec) 
Heartbeat CPU  0 instructions:  269000001 cycles:  313487204 heartbeat IPC: 0.69720 cumulative IPC: 0.61011 (Simulation time: 0 hr 11 min 16 sec) 
Heartbeat CPU  0 instructions:  270000002 cycles:  314920897 heartbeat IPC: 0.69750 cumulative IPC: 0.61056 (Simulation time: 0 hr 11 min 18 sec) 
Heartbeat CPU  0 instructions:  271000001 cycles:  316374657 heartbeat IPC: 0.68787 cumulative IPC: 0.61096 (Simulation time: 0 hr 11 min 21 sec) 
Heartbeat CPU  0 instructions:  272000000 cycles:  317824113 heartbeat IPC: 0.68991 cumulative IPC: 0.61137 (Simulation time: 0 hr 11 min 24 sec) 
Heartbeat CPU  0 instructions:  273000001 cycles:  319278475 heartbeat IPC: 0.68759 cumulative IPC: 0.61176 (Simulation time: 0 hr 11 min 26 sec) 
Heartbeat CPU  0 instructions:  274000003 cycles:  320728659 heartbeat IPC: 0.68957 cumulative IPC: 0.61216 (Simulation time: 0 hr 11 min 29 sec) 
Heartbeat CPU  0 instructions:  275000003 cycles:  322183313 heartbeat IPC: 0.68745 cumulative IPC: 0.61254 (Simulation time: 0 hr 11 min 31 sec) 
Heartbeat CPU  0 instructions:  276000000 cycles:  323640056 heartbeat IPC: 0.68646 cumulative IPC: 0.61292 (Simulation time: 0 hr 11 min 34 sec) 
Heartbeat CPU  0 instructions:  277000001 cycles:  325087979 heartbeat IPC: 0.69065 cumulative IPC: 0.61331 (Simulation time: 0 hr 11 min 37 sec) 
Heartbeat CPU  0 instructions:  278000000 cycles:  326537144 heartbeat IPC: 0.69005 cumulative IPC: 0.61369 (Simulation time: 0 hr 11 min 39 sec) 
Heartbeat CPU  0 instructions:  279000000 cycles:  327986922 heartbeat IPC: 0.68976 cumulative IPC: 0.61407 (Simulation time: 0 hr 11 min 42 sec) 
Heartbeat CPU  0 instructions:  280000000 cycles:  329439534 heartbeat IPC: 0.68842 cumulative IPC: 0.61444 (Simulation time: 0 hr 11 min 44 sec) 
Heartbeat CPU  0 instructions:  281000002 cycles:  330890988 heartbeat IPC: 0.68897 cumulative IPC: 0.61480 (Simulation time: 0 hr 11 min 47 sec) 
Heartbeat CPU  0 instructions:  282000002 cycles:  332340347 heartbeat IPC: 0.68996 cumulative IPC: 0.61517 (Simulation time: 0 hr 11 min 49 sec) 
Heartbeat CPU  0 instructions:  283000002 cycles:  333790313 heartbeat IPC: 0.68967 cumulative IPC: 0.61553 (Simulation time: 0 hr 11 min 52 sec) 
Heartbeat CPU  0 instructions:  284000000 cycles:  335241521 heartbeat IPC: 0.68908 cumulative IPC: 0.61589 (Simulation time: 0 hr 11 min 55 sec) 
Heartbeat CPU  0 instructions:  285000003 cycles:  336691357 heartbeat IPC: 0.68974 cumulative IPC: 0.61625 (Simulation time: 0 hr 11 min 57 sec) 
Heartbeat CPU  0 instructions:  286000000 cycles:  338139829 heartbeat IPC: 0.69038 cumulative IPC: 0.61660 (Simulation time: 0 hr 12 min 0 sec) 
Heartbeat CPU  0 instructions:  287000000 cycles:  339589780 heartbeat IPC: 0.68968 cumulative IPC: 0.61695 (Simulation time: 0 hr 12 min 2 sec) 
Heartbeat CPU  0 instructions:  288000000 cycles:  341036497 heartbeat IPC: 0.69122 cumulative IPC: 0.61731 (Simulation time: 0 hr 12 min 5 sec) 
Heartbeat CPU  0 instructions:  289000001 cycles:  342488178 heartbeat IPC: 0.68886 cumulative IPC: 0.61765 (Simulation time: 0 hr 12 min 7 sec) 
Heartbeat CPU  0 instructions:  290000002 cycles:  343936474 heartbeat IPC: 0.69047 cumulative IPC: 0.61799 (Simulation time: 0 hr 12 min 10 sec) 
Heartbeat CPU  0 instructions:  291000002 cycles:  345389710 heartbeat IPC: 0.68812 cumulative IPC: 0.61832 (Simulation time: 0 hr 12 min 12 sec) 
Heartbeat CPU  0 instructions:  292000000 cycles:  346842005 heartbeat IPC: 0.68856 cumulative IPC: 0.61865 (Simulation time: 0 hr 12 min 15 sec) 
Heartbeat CPU  0 instructions:  293000003 cycles:  348293791 heartbeat IPC: 0.68881 cumulative IPC: 0.61897 (Simulation time: 0 hr 12 min 17 sec) 
Heartbeat CPU  0 instructions:  294000000 cycles:  349738702 heartbeat IPC: 0.69208 cumulative IPC: 0.61931 (Simulation time: 0 hr 12 min 20 sec) 
Heartbeat CPU  0 instructions:  295000003 cycles:  351187237 heartbeat IPC: 0.69035 cumulative IPC: 0.61964 (Simulation time: 0 hr 12 min 23 sec) 
Heartbeat CPU  0 instructions:  296000000 cycles:  352632857 heartbeat IPC: 0.69174 cumulative IPC: 0.61997 (Simulation time: 0 hr 12 min 25 sec) 
Heartbeat CPU  0 instructions:  297000003 cycles:  354083112 heartbeat IPC: 0.68954 cumulative IPC: 0.62029 (Simulation time: 0 hr 12 min 28 sec) 
Heartbeat CPU  0 instructions:  298000001 cycles:  355530721 heartbeat IPC: 0.69079 cumulative IPC: 0.62061 (Simulation time: 0 hr 12 min 30 sec) 
Heartbeat CPU  0 instructions:  299000001 cycles:  356980310 heartbeat IPC: 0.68985 cumulative IPC: 0.62092 (Simulation time: 0 hr 12 min 33 sec) 
Heartbeat CPU  0 instructions:  300000000 cycles:  358424623 heartbeat IPC: 0.69237 cumulative IPC: 0.62124 (Simulation time: 0 hr 12 min 35 sec) 
Heartbeat CPU  0 instructions:  301000000 cycles:  359872735 heartbeat IPC: 0.69055 cumulative IPC: 0.62155 (Simulation time: 0 hr 12 min 38 sec) 
Heartbeat CPU  0 instructions:  302000001 cycles:  361324526 heartbeat IPC: 0.68881 cumulative IPC: 0.62185 (Simulation time: 0 hr 12 min 40 sec) 
Heartbeat CPU  0 instructions:  303000003 cycles:  362773767 heartbeat IPC: 0.69002 cumulative IPC: 0.62215 (Simulation time: 0 hr 12 min 43 sec) 
Heartbeat CPU  0 instructions:  304000000 cycles:  364223257 heartbeat IPC: 0.68990 cumulative IPC: 0.62245 (Simulation time: 0 hr 12 min 45 sec) 
Heartbeat CPU  0 instructions:  305000001 cycles:  365673175 heartbeat IPC: 0.68969 cumulative IPC: 0.62275 (Simulation time: 0 hr 12 min 48 sec) 
Heartbeat CPU  0 instructions:  306000002 cycles:  367122013 heartbeat IPC: 0.69021 cumulative IPC: 0.62304 (Simulation time: 0 hr 12 min 51 sec) 
Heartbeat CPU  0 instructions:  307000001 cycles:  368571796 heartbeat IPC: 0.68976 cumulative IPC: 0.62334 (Simulation time: 0 hr 12 min 53 sec) 
Heartbeat CPU  0 instructions:  308000000 cycles:  370021129 heartbeat IPC: 0.68997 cumulative IPC: 0.62363 (Simulation time: 0 hr 12 min 56 sec) 
Heartbeat CPU  0 instructions:  309000001 cycles:  371473741 heartbeat IPC: 0.68842 cumulative IPC: 0.62391 (Simulation time: 0 hr 12 min 58 sec) 
Heartbeat CPU  0 instructions:  310000003 cycles:  372920778 heartbeat IPC: 0.69107 cumulative IPC: 0.62420 (Simulation time: 0 hr 13 min 1 sec) 
Heartbeat CPU  0 instructions:  311000003 cycles:  374366196 heartbeat IPC: 0.69184 cumulative IPC: 0.62448 (Simulation time: 0 hr 13 min 3 sec) 
Heartbeat CPU  0 instructions:  312000000 cycles:  375817227 heartbeat IPC: 0.68916 cumulative IPC: 0.62476 (Simulation time: 0 hr 13 min 6 sec) 
Heartbeat CPU  0 instructions:  313000001 cycles:  377266486 heartbeat IPC: 0.69001 cumulative IPC: 0.62504 (Simulation time: 0 hr 13 min 8 sec) 
Heartbeat CPU  0 instructions:  314000000 cycles:  378720412 heartbeat IPC: 0.68779 cumulative IPC: 0.62531 (Simulation time: 0 hr 13 min 11 sec) 
Heartbeat CPU  0 instructions:  315000003 cycles:  380165620 heartbeat IPC: 0.69194 cumulative IPC: 0.62559 (Simulation time: 0 hr 13 min 13 sec) 
Heartbeat CPU  0 instructions:  316000000 cycles:  381615422 heartbeat IPC: 0.68975 cumulative IPC: 0.62586 (Simulation time: 0 hr 13 min 16 sec) 
Heartbeat CPU  0 instructions:  317000002 cycles:  383063938 heartbeat IPC: 0.69036 cumulative IPC: 0.62612 (Simulation time: 0 hr 13 min 19 sec) 
Heartbeat CPU  0 instructions:  318000002 cycles:  384515498 heartbeat IPC: 0.68891 cumulative IPC: 0.62639 (Simulation time: 0 hr 13 min 21 sec) 
Heartbeat CPU  0 instructions:  319000002 cycles:  385965018 heartbeat IPC: 0.68988 cumulative IPC: 0.62665 (Simulation time: 0 hr 13 min 24 sec) 
Heartbeat CPU  0 instructions:  320000000 cycles:  387411577 heartbeat IPC: 0.69129 cumulative IPC: 0.62692 (Simulation time: 0 hr 13 min 26 sec) 
Heartbeat CPU  0 instructions:  321000000 cycles:  389035145 heartbeat IPC: 0.61593 cumulative IPC: 0.62687 (Simulation time: 0 hr 13 min 29 sec) 
Heartbeat CPU  0 instructions:  322000000 cycles:  390714669 heartbeat IPC: 0.59541 cumulative IPC: 0.62672 (Simulation time: 0 hr 13 min 33 sec) 
Heartbeat CPU  0 instructions:  323000000 cycles:  392154411 heartbeat IPC: 0.69457 cumulative IPC: 0.62699 (Simulation time: 0 hr 13 min 36 sec) 
Heartbeat CPU  0 instructions:  324000000 cycles:  393502274 heartbeat IPC: 0.74192 cumulative IPC: 0.62743 (Simulation time: 0 hr 13 min 38 sec) 
Heartbeat CPU  0 instructions:  325000003 cycles:  394822826 heartbeat IPC: 0.75726 cumulative IPC: 0.62790 (Simulation time: 0 hr 13 min 41 sec) 
Heartbeat CPU  0 instructions:  326000002 cycles:  396139203 heartbeat IPC: 0.75966 cumulative IPC: 0.62839 (Simulation time: 0 hr 13 min 43 sec) 
Heartbeat CPU  0 instructions:  327000003 cycles:  397447217 heartbeat IPC: 0.76452 cumulative IPC: 0.62888 (Simulation time: 0 hr 13 min 46 sec) 
Heartbeat CPU  0 instructions:  328000000 cycles:  398761078 heartbeat IPC: 0.76111 cumulative IPC: 0.62936 (Simulation time: 0 hr 13 min 49 sec) 
Heartbeat CPU  0 instructions:  329000000 cycles:  400075376 heartbeat IPC: 0.76086 cumulative IPC: 0.62983 (Simulation time: 0 hr 13 min 51 sec) 
Heartbeat CPU  0 instructions:  330000000 cycles:  401384250 heartbeat IPC: 0.76402 cumulative IPC: 0.63032 (Simulation time: 0 hr 13 min 54 sec) 
Heartbeat CPU  0 instructions:  331000003 cycles:  402696969 heartbeat IPC: 0.76178 cumulative IPC: 0.63079 (Simulation time: 0 hr 13 min 56 sec) 
Heartbeat CPU  0 instructions:  332000000 cycles:  404006899 heartbeat IPC: 0.76340 cumulative IPC: 0.63126 (Simulation time: 0 hr 13 min 59 sec) 
Heartbeat CPU  0 instructions:  333000001 cycles:  405316101 heartbeat IPC: 0.76382 cumulative IPC: 0.63173 (Simulation time: 0 hr 14 min 1 sec) 
Heartbeat CPU  0 instructions:  334000003 cycles:  406627333 heartbeat IPC: 0.76264 cumulative IPC: 0.63219 (Simulation time: 0 hr 14 min 4 sec) 
Heartbeat CPU  0 instructions:  335000003 cycles:  407933245 heartbeat IPC: 0.76575 cumulative IPC: 0.63266 (Simulation time: 0 hr 14 min 6 sec) 
Heartbeat CPU  0 instructions:  336000000 cycles:  409242754 heartbeat IPC: 0.76364 cumulative IPC: 0.63312 (Simulation time: 0 hr 14 min 9 sec) 
Heartbeat CPU  0 instructions:  337000003 cycles:  410549942 heartbeat IPC: 0.76500 cumulative IPC: 0.63358 (Simulation time: 0 hr 14 min 12 sec) 
Heartbeat CPU  0 instructions:  338000000 cycles:  411854363 heartbeat IPC: 0.76662 cumulative IPC: 0.63405 (Simulation time: 0 hr 14 min 14 sec) 
Heartbeat CPU  0 instructions:  339000002 cycles:  413158807 heartbeat IPC: 0.76661 cumulative IPC: 0.63451 (Simulation time: 0 hr 14 min 17 sec) 
Heartbeat CPU  0 instructions:  340000000 cycles:  414472500 heartbeat IPC: 0.76121 cumulative IPC: 0.63495 (Simulation time: 0 hr 14 min 19 sec) 
Heartbeat CPU  0 instructions:  341000003 cycles:  415791891 heartbeat IPC: 0.75793 cumulative IPC: 0.63537 (Simulation time: 0 hr 14 min 22 sec) 
Heartbeat CPU  0 instructions:  342000001 cycles:  417099158 heartbeat IPC: 0.76495 cumulative IPC: 0.63582 (Simulation time: 0 hr 14 min 24 sec) 
Heartbeat CPU  0 instructions:  343000003 cycles:  418413186 heartbeat IPC: 0.76102 cumulative IPC: 0.63625 (Simulation time: 0 hr 14 min 27 sec) 
Heartbeat CPU  0 instructions:  344000000 cycles:  419715552 heartbeat IPC: 0.76783 cumulative IPC: 0.63670 (Simulation time: 0 hr 14 min 29 sec) 
Heartbeat CPU  0 instructions:  345000002 cycles:  421031511 heartbeat IPC: 0.75990 cumulative IPC: 0.63712 (Simulation time: 0 hr 14 min 32 sec) 
Heartbeat CPU  0 instructions:  346000001 cycles:  422344978 heartbeat IPC: 0.76134 cumulative IPC: 0.63754 (Simulation time: 0 hr 14 min 35 sec) 
Heartbeat CPU  0 instructions:  347000002 cycles:  423655416 heartbeat IPC: 0.76310 cumulative IPC: 0.63797 (Simulation time: 0 hr 14 min 37 sec) 
Heartbeat CPU  0 instructions:  348000000 cycles:  424964969 heartbeat IPC: 0.76362 cumulative IPC: 0.63839 (Simulation time: 0 hr 14 min 40 sec) 
Heartbeat CPU  0 instructions:  349000003 cycles:  426276291 heartbeat IPC: 0.76259 cumulative IPC: 0.63881 (Simulation time: 0 hr 14 min 42 sec) 
Heartbeat CPU  0 instructions:  350000002 cycles:  427582482 heartbeat IPC: 0.76558 cumulative IPC: 0.63923 (Simulation time: 0 hr 14 min 45 sec) 
Heartbeat CPU  0 instructions:  351000000 cycles:  428896151 heartbeat IPC: 0.76123 cumulative IPC: 0.63964 (Simulation time: 0 hr 14 min 47 sec) 
Heartbeat CPU  0 instructions:  352000000 cycles:  430207674 heartbeat IPC: 0.76247 cumulative IPC: 0.64005 (Simulation time: 0 hr 14 min 50 sec) 
Heartbeat CPU  0 instructions:  353000002 cycles:  431512045 heartbeat IPC: 0.76665 cumulative IPC: 0.64047 (Simulation time: 0 hr 14 min 52 sec) 
Heartbeat CPU  0 instructions:  354000002 cycles:  432829694 heartbeat IPC: 0.75893 cumulative IPC: 0.64086 (Simulation time: 0 hr 14 min 55 sec) 
Heartbeat CPU  0 instructions:  355000002 cycles:  434128393 heartbeat IPC: 0.77000 cumulative IPC: 0.64128 (Simulation time: 0 hr 14 min 57 sec) 
Heartbeat CPU  0 instructions:  356000000 cycles:  435407841 heartbeat IPC: 0.78159 cumulative IPC: 0.64173 (Simulation time: 0 hr 15 min 0 sec) 
Heartbeat CPU  0 instructions:  357000003 cycles:  436649484 heartbeat IPC: 0.80539 cumulative IPC: 0.64224 (Simulation time: 0 hr 15 min 2 sec) 
Heartbeat CPU  0 instructions:  358000000 cycles:  437853056 heartbeat IPC: 0.83086 cumulative IPC: 0.64281 (Simulation time: 0 hr 15 min 5 sec) 
Heartbeat CPU  0 instructions:  359000000 cycles:  439167166 heartbeat IPC: 0.76097 cumulative IPC: 0.64319 (Simulation time: 0 hr 15 min 7 sec) 
Heartbeat CPU  0 instructions:  360000000 cycles:  440490023 heartbeat IPC: 0.75594 cumulative IPC: 0.64356 (Simulation time: 0 hr 15 min 10 sec) 
Heartbeat CPU  0 instructions:  361000000 cycles:  441810279 heartbeat IPC: 0.75743 cumulative IPC: 0.64393 (Simulation time: 0 hr 15 min 13 sec) 
Heartbeat CPU  0 instructions:  362000000 cycles:  443137396 heartbeat IPC: 0.75351 cumulative IPC: 0.64429 (Simulation time: 0 hr 15 min 15 sec) 
Heartbeat CPU  0 instructions:  363000003 cycles:  444460318 heartbeat IPC: 0.75590 cumulative IPC: 0.64465 (Simulation time: 0 hr 15 min 18 sec) 
Heartbeat CPU  0 instructions:  364000000 cycles:  445788056 heartbeat IPC: 0.75316 cumulative IPC: 0.64500 (Simulation time: 0 hr 15 min 20 sec) 
Heartbeat CPU  0 instructions:  365000002 cycles:  447114751 heartbeat IPC: 0.75375 cumulative IPC: 0.64535 (Simulation time: 0 hr 15 min 23 sec) 
Heartbeat CPU  0 instructions:  366000001 cycles:  448437556 heartbeat IPC: 0.75597 cumulative IPC: 0.64571 (Simulation time: 0 hr 15 min 25 sec) 
Heartbeat CPU  0 instructions:  367000003 cycles:  449759446 heartbeat IPC: 0.75649 cumulative IPC: 0.64606 (Simulation time: 0 hr 15 min 28 sec) 
Heartbeat CPU  0 instructions:  368000000 cycles:  451083385 heartbeat IPC: 0.75532 cumulative IPC: 0.64641 (Simulation time: 0 hr 15 min 30 sec) 
Heartbeat CPU  0 instructions:  369000000 cycles:  452410903 heartbeat IPC: 0.75329 cumulative IPC: 0.64675 (Simulation time: 0 hr 15 min 33 sec) 
Heartbeat CPU  0 instructions:  370000003 cycles:  453730946 heartbeat IPC: 0.75755 cumulative IPC: 0.64710 (Simulation time: 0 hr 15 min 36 sec) 
Heartbeat CPU  0 instructions:  371000001 cycles:  455052955 heartbeat IPC: 0.75642 cumulative IPC: 0.64745 (Simulation time: 0 hr 15 min 38 sec) 
Heartbeat CPU  0 instructions:  372000000 cycles:  456380689 heartbeat IPC: 0.75316 cumulative IPC: 0.64778 (Simulation time: 0 hr 15 min 41 sec) 
Heartbeat CPU  0 instructions:  373000002 cycles:  457703661 heartbeat IPC: 0.75588 cumulative IPC: 0.64812 (Simulation time: 0 hr 15 min 43 sec) 
Heartbeat CPU  0 instructions:  374000002 cycles:  459030251 heartbeat IPC: 0.75381 cumulative IPC: 0.64846 (Simulation time: 0 hr 15 min 46 sec) 
Heartbeat CPU  0 instructions:  375000001 cycles:  460357669 heartbeat IPC: 0.75334 cumulative IPC: 0.64878 (Simulation time: 0 hr 15 min 48 sec) 
Heartbeat CPU  0 instructions:  376000000 cycles:  461677296 heartbeat IPC: 0.75779 cumulative IPC: 0.64912 (Simulation time: 0 hr 15 min 51 sec) 
Heartbeat CPU  0 instructions:  377000000 cycles:  462994025 heartbeat IPC: 0.75946 cumulative IPC: 0.64946 (Simulation time: 0 hr 15 min 53 sec) 
Heartbeat CPU  0 instructions:  378000003 cycles:  464319626 heartbeat IPC: 0.75438 cumulative IPC: 0.64979 (Simulation time: 0 hr 15 min 56 sec) 
Heartbeat CPU  0 instructions:  379000003 cycles:  465642420 heartbeat IPC: 0.75598 cumulative IPC: 0.65012 (Simulation time: 0 hr 15 min 58 sec) 
Heartbeat CPU  0 instructions:  380000000 cycles:  466963623 heartbeat IPC: 0.75688 cumulative IPC: 0.65044 (Simulation time: 0 hr 16 min 1 sec) 
Heartbeat CPU  0 instructions:  381000002 cycles:  468273644 heartbeat IPC: 0.76335 cumulative IPC: 0.65079 (Simulation time: 0 hr 16 min 4 sec) 
Heartbeat CPU  0 instructions:  382000001 cycles:  469586445 heartbeat IPC: 0.76173 cumulative IPC: 0.65112 (Simulation time: 0 hr 16 min 6 sec) 
Heartbeat CPU  0 instructions:  383000003 cycles:  470901384 heartbeat IPC: 0.76049 cumulative IPC: 0.65145 (Simulation time: 0 hr 16 min 9 sec) 
Heartbeat CPU  0 instructions:  384000000 cycles:  472205624 heartbeat IPC: 0.76673 cumulative IPC: 0.65180 (Simulation time: 0 hr 16 min 11 sec) 
Heartbeat CPU  0 instructions:  385000002 cycles:  473522068 heartbeat IPC: 0.75962 cumulative IPC: 0.65212 (Simulation time: 0 hr 16 min 14 sec) 
Heartbeat CPU  0 instructions:  386000003 cycles:  474834678 heartbeat IPC: 0.76184 cumulative IPC: 0.65245 (Simulation time: 0 hr 16 min 16 sec) 
Heartbeat CPU  0 instructions:  387000000 cycles:  476147064 heartbeat IPC: 0.76197 cumulative IPC: 0.65278 (Simulation time: 0 hr 16 min 19 sec) 
Heartbeat CPU  0 instructions:  388000000 cycles:  477460524 heartbeat IPC: 0.76135 cumulative IPC: 0.65310 (Simulation time: 0 hr 16 min 21 sec) 
Heartbeat CPU  0 instructions:  389000003 cycles:  478776352 heartbeat IPC: 0.75998 cumulative IPC: 0.65342 (Simulation time: 0 hr 16 min 24 sec) 
Heartbeat CPU  0 instructions:  390000002 cycles:  480085714 heartbeat IPC: 0.76373 cumulative IPC: 0.65375 (Simulation time: 0 hr 16 min 26 sec) 
Heartbeat CPU  0 instructions:  391000000 cycles:  481399639 heartbeat IPC: 0.76108 cumulative IPC: 0.65406 (Simulation time: 0 hr 16 min 29 sec) 
Heartbeat CPU  0 instructions:  392000000 cycles:  482709870 heartbeat IPC: 0.76322 cumulative IPC: 0.65438 (Simulation time: 0 hr 16 min 31 sec) 
Heartbeat CPU  0 instructions:  393000003 cycles:  484016844 heartbeat IPC: 0.76513 cumulative IPC: 0.65471 (Simulation time: 0 hr 16 min 34 sec) 
Heartbeat CPU  0 instructions:  394000001 cycles:  485333085 heartbeat IPC: 0.75974 cumulative IPC: 0.65501 (Simulation time: 0 hr 16 min 37 sec) 
Heartbeat CPU  0 instructions:  395000000 cycles:  486612116 heartbeat IPC: 0.78184 cumulative IPC: 0.65537 (Simulation time: 0 hr 16 min 39 sec) 
Heartbeat CPU  0 instructions:  396000000 cycles:  487845062 heartbeat IPC: 0.81107 cumulative IPC: 0.65580 (Simulation time: 0 hr 16 min 41 sec) 
Heartbeat CPU  0 instructions:  397000003 cycles:  489080615 heartbeat IPC: 0.80936 cumulative IPC: 0.65622 (Simulation time: 0 hr 16 min 44 sec) 
Heartbeat CPU  0 instructions:  398000002 cycles:  490324745 heartbeat IPC: 0.80377 cumulative IPC: 0.65662 (Simulation time: 0 hr 16 min 47 sec) 
Heartbeat CPU  0 instructions:  399000000 cycles:  491559525 heartbeat IPC: 0.80986 cumulative IPC: 0.65704 (Simulation time: 0 hr 16 min 49 sec) 
Heartbeat CPU  0 instructions:  400000000 cycles:  492804329 heartbeat IPC: 0.80334 cumulative IPC: 0.65744 (Simulation time: 0 hr 16 min 51 sec) 
Heartbeat CPU  0 instructions:  401000002 cycles:  494060376 heartbeat IPC: 0.79615 cumulative IPC: 0.65782 (Simulation time: 0 hr 16 min 54 sec) 
Heartbeat CPU  0 instructions:  402000000 cycles:  495310564 heartbeat IPC: 0.79988 cumulative IPC: 0.65821 (Simulation time: 0 hr 16 min 56 sec) 
Heartbeat CPU  0 instructions:  403000003 cycles:  496570078 heartbeat IPC: 0.79396 cumulative IPC: 0.65858 (Simulation time: 0 hr 16 min 59 sec) 
Heartbeat CPU  0 instructions:  404000000 cycles:  497821354 heartbeat IPC: 0.79918 cumulative IPC: 0.65896 (Simulation time: 0 hr 17 min 1 sec) 
Heartbeat CPU  0 instructions:  405000002 cycles:  499081999 heartbeat IPC: 0.79325 cumulative IPC: 0.65933 (Simulation time: 0 hr 17 min 4 sec) 
Heartbeat CPU  0 instructions:  406000000 cycles:  500340231 heartbeat IPC: 0.79476 cumulative IPC: 0.65969 (Simulation time: 0 hr 17 min 6 sec) 
Heartbeat CPU  0 instructions:  407000003 cycles:  501594355 heartbeat IPC: 0.79737 cumulative IPC: 0.66006 (Simulation time: 0 hr 17 min 9 sec) 
Heartbeat CPU  0 instructions:  408000000 cycles:  502851396 heartbeat IPC: 0.79552 cumulative IPC: 0.66043 (Simulation time: 0 hr 17 min 11 sec) 
Heartbeat CPU  0 instructions:  409000002 cycles:  504099026 heartbeat IPC: 0.80152 cumulative IPC: 0.66081 (Simulation time: 0 hr 17 min 14 sec) 
Heartbeat CPU  0 instructions:  410000003 cycles:  505352645 heartbeat IPC: 0.79769 cumulative IPC: 0.66117 (Simulation time: 0 hr 17 min 16 sec) 
Heartbeat CPU  0 instructions:  411000001 cycles:  506605763 heartbeat IPC: 0.79801 cumulative IPC: 0.66154 (Simulation time: 0 hr 17 min 19 sec) 
Heartbeat CPU  0 instructions:  412000000 cycles:  507856780 heartbeat IPC: 0.79935 cumulative IPC: 0.66190 (Simulation time: 0 hr 17 min 21 sec) 
Heartbeat CPU  0 instructions:  413000000 cycles:  509112420 heartbeat IPC: 0.79641 cumulative IPC: 0.66226 (Simulation time: 0 hr 17 min 24 sec) 
Heartbeat CPU  0 instructions:  414000003 cycles:  510364969 heartbeat IPC: 0.79837 cumulative IPC: 0.66262 (Simulation time: 0 hr 17 min 26 sec) 
Heartbeat CPU  0 instructions:  415000002 cycles:  511612859 heartbeat IPC: 0.80135 cumulative IPC: 0.66298 (Simulation time: 0 hr 17 min 29 sec) 
Heartbeat CPU  0 instructions:  416000000 cycles:  512892338 heartbeat IPC: 0.78157 cumulative IPC: 0.66330 (Simulation time: 0 hr 17 min 32 sec) 
Heartbeat CPU  0 instructions:  417000001 cycles:  514195993 heartbeat IPC: 0.76707 cumulative IPC: 0.66358 (Simulation time: 0 hr 17 min 34 sec) 
Heartbeat CPU  0 instructions:  418000001 cycles:  515506598 heartbeat IPC: 0.76301 cumulative IPC: 0.66386 (Simulation time: 0 hr 17 min 37 sec) 
Heartbeat CPU  0 instructions:  419000000 cycles:  516824450 heartbeat IPC: 0.75881 cumulative IPC: 0.66412 (Simulation time: 0 hr 17 min 39 sec) 
Heartbeat CPU  0 instructions:  420000000 cycles:  518131268 heartbeat IPC: 0.76522 cumulative IPC: 0.66439 (Simulation time: 0 hr 17 min 42 sec) 
Heartbeat CPU  0 instructions:  421000003 cycles:  519444424 heartbeat IPC: 0.76153 cumulative IPC: 0.66466 (Simulation time: 0 hr 17 min 44 sec) 
Heartbeat CPU  0 instructions:  422000002 cycles:  520755433 heartbeat IPC: 0.76277 cumulative IPC: 0.66492 (Simulation time: 0 hr 17 min 47 sec) 
Heartbeat CPU  0 instructions:  423000001 cycles:  522067194 heartbeat IPC: 0.76233 cumulative IPC: 0.66518 (Simulation time: 0 hr 17 min 49 sec) 
Heartbeat CPU  0 instructions:  424000000 cycles:  523374221 heartbeat IPC: 0.76509 cumulative IPC: 0.66545 (Simulation time: 0 hr 17 min 52 sec) 
Heartbeat CPU  0 instructions:  425000002 cycles:  524684290 heartbeat IPC: 0.76332 cumulative IPC: 0.66572 (Simulation time: 0 hr 17 min 54 sec) 
Heartbeat CPU  0 instructions:  426000000 cycles:  526001285 heartbeat IPC: 0.75930 cumulative IPC: 0.66597 (Simulation time: 0 hr 17 min 57 sec) 
Heartbeat CPU  0 instructions:  427000003 cycles:  527307484 heartbeat IPC: 0.76558 cumulative IPC: 0.66623 (Simulation time: 0 hr 17 min 59 sec) 
Heartbeat CPU  0 instructions:  428000000 cycles:  528620425 heartbeat IPC: 0.76165 cumulative IPC: 0.66649 (Simulation time: 0 hr 18 min 2 sec) 
Heartbeat CPU  0 instructions:  429000001 cycles:  529930310 heartbeat IPC: 0.76343 cumulative IPC: 0.66674 (Simulation time: 0 hr 18 min 4 sec) 
Heartbeat CPU  0 instructions:  430000002 cycles:  531241042 heartbeat IPC: 0.76293 cumulative IPC: 0.66700 (Simulation time: 0 hr 18 min 7 sec) 
Heartbeat CPU  0 instructions:  431000000 cycles:  532551839 heartbeat IPC: 0.76289 cumulative IPC: 0.66725 (Simulation time: 0 hr 18 min 9 sec) 
Heartbeat CPU  0 instructions:  432000000 cycles:  533865318 heartbeat IPC: 0.76134 cumulative IPC: 0.66750 (Simulation time: 0 hr 18 min 12 sec) 
Heartbeat CPU  0 instructions:  433000000 cycles:  535183762 heartbeat IPC: 0.75847 cumulative IPC: 0.66774 (Simulation time: 0 hr 18 min 14 sec) 
Heartbeat CPU  0 instructions:  434000003 cycles:  536497886 heartbeat IPC: 0.76097 cumulative IPC: 0.66799 (Simulation time: 0 hr 18 min 17 sec) 
Heartbeat CPU  0 instructions:  435000003 cycles:  537804560 heartbeat IPC: 0.76530 cumulative IPC: 0.66824 (Simulation time: 0 hr 18 min 20 sec) 
Heartbeat CPU  0 instructions:  436000000 cycles:  539106484 heartbeat IPC: 0.76809 cumulative IPC: 0.66850 (Simulation time: 0 hr 18 min 22 sec) 
Heartbeat CPU  0 instructions:  437000003 cycles:  540415430 heartbeat IPC: 0.76398 cumulative IPC: 0.66875 (Simulation time: 0 hr 18 min 25 sec) 
Heartbeat CPU  0 instructions:  438000003 cycles:  541733292 heartbeat IPC: 0.75880 cumulative IPC: 0.66898 (Simulation time: 0 hr 18 min 27 sec) 
Heartbeat CPU  0 instructions:  439000002 cycles:  543034440 heartbeat IPC: 0.76855 cumulative IPC: 0.66924 (Simulation time: 0 hr 18 min 30 sec) 
Heartbeat CPU  0 instructions:  440000000 cycles:  544345628 heartbeat IPC: 0.76267 cumulative IPC: 0.66948 (Simulation time: 0 hr 18 min 32 sec) 
Heartbeat CPU  0 instructions:  441000001 cycles:  545660663 heartbeat IPC: 0.76044 cumulative IPC: 0.66971 (Simulation time: 0 hr 18 min 35 sec) 
Heartbeat CPU  0 instructions:  442000000 cycles:  546974095 heartbeat IPC: 0.76136 cumulative IPC: 0.66995 (Simulation time: 0 hr 18 min 37 sec) 
Heartbeat CPU  0 instructions:  443000002 cycles:  548285466 heartbeat IPC: 0.76256 cumulative IPC: 0.67019 (Simulation time: 0 hr 18 min 40 sec) 
Heartbeat CPU  0 instructions:  444000000 cycles:  549598467 heartbeat IPC: 0.76161 cumulative IPC: 0.67042 (Simulation time: 0 hr 18 min 42 sec) 
Heartbeat CPU  0 instructions:  445000000 cycles:  550905030 heartbeat IPC: 0.76537 cumulative IPC: 0.67066 (Simulation time: 0 hr 18 min 45 sec) 
Heartbeat CPU  0 instructions:  446000003 cycles:  552212984 heartbeat IPC: 0.76456 cumulative IPC: 0.67090 (Simulation time: 0 hr 18 min 47 sec) 
Heartbeat CPU  0 instructions:  447000000 cycles:  553524947 heartbeat IPC: 0.76221 cumulative IPC: 0.67113 (Simulation time: 0 hr 18 min 50 sec) 
Heartbeat CPU  0 instructions:  448000000 cycles:  554840490 heartbeat IPC: 0.76014 cumulative IPC: 0.67136 (Simulation time: 0 hr 18 min 52 sec) 
Heartbeat CPU  0 instructions:  449000001 cycles:  556147909 heartbeat IPC: 0.76487 cumulative IPC: 0.67159 (Simulation time: 0 hr 18 min 55 sec) 
Heartbeat CPU  0 instructions:  450000002 cycles:  557458241 heartbeat IPC: 0.76317 cumulative IPC: 0.67182 (Simulation time: 0 hr 18 min 57 sec) 
Heartbeat CPU  0 instructions:  451000001 cycles:  558771566 heartbeat IPC: 0.76143 cumulative IPC: 0.67205 (Simulation time: 0 hr 19 min 0 sec) 
Heartbeat CPU  0 instructions:  452000000 cycles:  560080671 heartbeat IPC: 0.76388 cumulative IPC: 0.67228 (Simulation time: 0 hr 19 min 2 sec) 
Heartbeat CPU  0 instructions:  453000000 cycles:  561390611 heartbeat IPC: 0.76339 cumulative IPC: 0.67251 (Simulation time: 0 hr 19 min 5 sec) 
Heartbeat CPU  0 instructions:  454000001 cycles:  562702123 heartbeat IPC: 0.76248 cumulative IPC: 0.67273 (Simulation time: 0 hr 19 min 7 sec) 
Heartbeat CPU  0 instructions:  455000003 cycles:  564007343 heartbeat IPC: 0.76616 cumulative IPC: 0.67296 (Simulation time: 0 hr 19 min 10 sec) 
Heartbeat CPU  0 instructions:  456000000 cycles:  565316612 heartbeat IPC: 0.76378 cumulative IPC: 0.67319 (Simulation time: 0 hr 19 min 12 sec) 
Heartbeat CPU  0 instructions:  457000002 cycles:  566627272 heartbeat IPC: 0.76298 cumulative IPC: 0.67341 (Simulation time: 0 hr 19 min 15 sec) 
Heartbeat CPU  0 instructions:  458000001 cycles:  567937441 heartbeat IPC: 0.76326 cumulative IPC: 0.67363 (Simulation time: 0 hr 19 min 17 sec) 
Heartbeat CPU  0 instructions:  459000000 cycles:  569251409 heartbeat IPC: 0.76105 cumulative IPC: 0.67384 (Simulation time: 0 hr 19 min 20 sec) 
Heartbeat CPU  0 instructions:  460000000 cycles:  570567120 heartbeat IPC: 0.76005 cumulative IPC: 0.67406 (Simulation time: 0 hr 19 min 22 sec) 
Heartbeat CPU  0 instructions:  461000003 cycles:  571871855 heartbeat IPC: 0.76644 cumulative IPC: 0.67428 (Simulation time: 0 hr 19 min 25 sec) 
Heartbeat CPU  0 instructions:  462000003 cycles:  573182998 heartbeat IPC: 0.76269 cumulative IPC: 0.67450 (Simulation time: 0 hr 19 min 28 sec) 
Heartbeat CPU  0 instructions:  463000002 cycles:  574497119 heartbeat IPC: 0.76096 cumulative IPC: 0.67471 (Simulation time: 0 hr 19 min 30 sec) 
Heartbeat CPU  0 instructions:  464000000 cycles:  575804839 heartbeat IPC: 0.76469 cumulative IPC: 0.67493 (Simulation time: 0 hr 19 min 33 sec) 
Heartbeat CPU  0 instructions:  465000001 cycles:  577114312 heartbeat IPC: 0.76367 cumulative IPC: 0.67514 (Simulation time: 0 hr 19 min 35 sec) 
Heartbeat CPU  0 instructions:  466000000 cycles:  578657417 heartbeat IPC: 0.64804 cumulative IPC: 0.67507 (Simulation time: 0 hr 19 min 38 sec) 
Heartbeat CPU  0 instructions:  467000000 cycles:  580339978 heartbeat IPC: 0.59433 cumulative IPC: 0.67482 (Simulation time: 0 hr 19 min 42 sec) 
Heartbeat CPU  0 instructions:  468000000 cycles:  581544005 heartbeat IPC: 0.83055 cumulative IPC: 0.67516 (Simulation time: 0 hr 19 min 44 sec) 
Heartbeat CPU  0 instructions:  469000000 cycles:  582586423 heartbeat IPC: 0.95931 cumulative IPC: 0.67570 (Simulation time: 0 hr 19 min 47 sec) 
Heartbeat CPU  0 instructions:  470000002 cycles:  583833566 heartbeat IPC: 0.80183 cumulative IPC: 0.67599 (Simulation time: 0 hr 19 min 49 sec) 
Heartbeat CPU  0 instructions:  471000001 cycles:  585051637 heartbeat IPC: 0.82097 cumulative IPC: 0.67631 (Simulation time: 0 hr 19 min 52 sec) 
Heartbeat CPU  0 instructions:  472000000 cycles:  586275870 heartbeat IPC: 0.81684 cumulative IPC: 0.67662 (Simulation time: 0 hr 19 min 54 sec) 
Heartbeat CPU  0 instructions:  473000001 cycles:  587491867 heartbeat IPC: 0.82237 cumulative IPC: 0.67695 (Simulation time: 0 hr 19 min 57 sec) 
Heartbeat CPU  0 instructions:  474000000 cycles:  588712131 heartbeat IPC: 0.81949 cumulative IPC: 0.67726 (Simulation time: 0 hr 19 min 59 sec) 
Heartbeat CPU  0 instructions:  475000000 cycles:  589933453 heartbeat IPC: 0.81878 cumulative IPC: 0.67757 (Simulation time: 0 hr 20 min 2 sec) 
Heartbeat CPU  0 instructions:  476000000 cycles:  591155584 heartbeat IPC: 0.81824 cumulative IPC: 0.67788 (Simulation time: 0 hr 20 min 4 sec) 
Heartbeat CPU  0 instructions:  477000000 cycles:  592372772 heartbeat IPC: 0.82157 cumulative IPC: 0.67820 (Simulation time: 0 hr 20 min 7 sec) 
Heartbeat CPU  0 instructions:  478000001 cycles:  593585119 heartbeat IPC: 0.82485 cumulative IPC: 0.67852 (Simulation time: 0 hr 20 min 9 sec) 
Heartbeat CPU  0 instructions:  479000003 cycles:  594802842 heartbeat IPC: 0.82121 cumulative IPC: 0.67883 (Simulation time: 0 hr 20 min 11 sec) 
Heartbeat CPU  0 instructions:  480000000 cycles:  596020448 heartbeat IPC: 0.82128 cumulative IPC: 0.67914 (Simulation time: 0 hr 20 min 14 sec) 
Heartbeat CPU  0 instructions:  481000002 cycles:  597238877 heartbeat IPC: 0.82073 cumulative IPC: 0.67945 (Simulation time: 0 hr 20 min 16 sec) 
Heartbeat CPU  0 instructions:  482000000 cycles:  598451367 heartbeat IPC: 0.82475 cumulative IPC: 0.67976 (Simulation time: 0 hr 20 min 19 sec) 
Heartbeat CPU  0 instructions:  483000003 cycles:  599657209 heartbeat IPC: 0.82930 cumulative IPC: 0.68008 (Simulation time: 0 hr 20 min 21 sec) 
Heartbeat CPU  0 instructions:  484000000 cycles:  600870990 heartbeat IPC: 0.82387 cumulative IPC: 0.68039 (Simulation time: 0 hr 20 min 24 sec) 
Heartbeat CPU  0 instructions:  485000001 cycles:  602092999 heartbeat IPC: 0.81833 cumulative IPC: 0.68069 (Simulation time: 0 hr 20 min 26 sec) 
Heartbeat CPU  0 instructions:  486000000 cycles:  603314234 heartbeat IPC: 0.81884 cumulative IPC: 0.68098 (Simulation time: 0 hr 20 min 29 sec) 
Heartbeat CPU  0 instructions:  487000001 cycles:  604526977 heartbeat IPC: 0.82458 cumulative IPC: 0.68129 (Simulation time: 0 hr 20 min 31 sec) 
Heartbeat CPU  0 instructions:  488000000 cycles:  605744046 heartbeat IPC: 0.82165 cumulative IPC: 0.68159 (Simulation time: 0 hr 20 min 34 sec) 
Heartbeat CPU  0 instructions:  489000002 cycles:  606962079 heartbeat IPC: 0.82100 cumulative IPC: 0.68189 (Simulation time: 0 hr 20 min 36 sec) 
Heartbeat CPU  0 instructions:  490000003 cycles:  608181069 heartbeat IPC: 0.82035 cumulative IPC: 0.68218 (Simulation time: 0 hr 20 min 39 sec) 
Heartbeat CPU  0 instructions:  491000002 cycles:  609399851 heartbeat IPC: 0.82049 cumulative IPC: 0.68248 (Simulation time: 0 hr 20 min 41 sec) 
Heartbeat CPU  0 instructions:  492000000 cycles:  610616468 heartbeat IPC: 0.82195 cumulative IPC: 0.68277 (Simulation time: 0 hr 20 min 44 sec) 
Heartbeat CPU  0 instructions:  493000001 cycles:  611833017 heartbeat IPC: 0.82200 cumulative IPC: 0.68307 (Simulation time: 0 hr 20 min 46 sec) 
Heartbeat CPU  0 instructions:  494000002 cycles:  613052448 heartbeat IPC: 0.82006 cumulative IPC: 0.68336 (Simulation time: 0 hr 20 min 48 sec) 
Heartbeat CPU  0 instructions:  495000000 cycles:  614271699 heartbeat IPC: 0.82017 cumulative IPC: 0.68365 (Simulation time: 0 hr 20 min 51 sec) 
Heartbeat CPU  0 instructions:  496000000 cycles:  615495687 heartbeat IPC: 0.81700 cumulative IPC: 0.68393 (Simulation time: 0 hr 20 min 53 sec) 
Heartbeat CPU  0 instructions:  497000003 cycles:  616716033 heartbeat IPC: 0.81944 cumulative IPC: 0.68421 (Simulation time: 0 hr 20 min 56 sec) 
Heartbeat CPU  0 instructions:  498000002 cycles:  617931763 heartbeat IPC: 0.82255 cumulative IPC: 0.68450 (Simulation time: 0 hr 20 min 58 sec) 
Heartbeat CPU  0 instructions:  499000001 cycles:  619151059 heartbeat IPC: 0.82014 cumulative IPC: 0.68479 (Simulation time: 0 hr 21 min 1 sec) 
Heartbeat CPU  0 instructions:  500000000 cycles:  620372010 heartbeat IPC: 0.81903 cumulative IPC: 0.68507 (Simulation time: 0 hr 21 min 3 sec) 
Heartbeat CPU  0 instructions:  501000000 cycles:  621565831 heartbeat IPC: 0.83765 cumulative IPC: 0.68538 (Simulation time: 0 hr 21 min 6 sec) 
Heartbeat CPU  0 instructions:  502000000 cycles:  622729739 heartbeat IPC: 0.85917 cumulative IPC: 0.68572 (Simulation time: 0 hr 21 min 8 sec) 
Heartbeat CPU  0 instructions:  503000003 cycles:  623860921 heartbeat IPC: 0.88403 cumulative IPC: 0.68611 (Simulation time: 0 hr 21 min 10 sec) 
Heartbeat CPU  0 instructions:  504000000 cycles:  625085990 heartbeat IPC: 0.81628 cumulative IPC: 0.68638 (Simulation time: 0 hr 21 min 13 sec) 
Heartbeat CPU  0 instructions:  505000002 cycles:  626299626 heartbeat IPC: 0.82397 cumulative IPC: 0.68666 (Simulation time: 0 hr 21 min 15 sec) 
Heartbeat CPU  0 instructions:  506000001 cycles:  627512847 heartbeat IPC: 0.82425 cumulative IPC: 0.68694 (Simulation time: 0 hr 21 min 18 sec) 
Heartbeat CPU  0 instructions:  507000000 cycles:  628724872 heartbeat IPC: 0.82506 cumulative IPC: 0.68722 (Simulation time: 0 hr 21 min 20 sec) 
Heartbeat CPU  0 instructions:  508000000 cycles:  629944796 heartbeat IPC: 0.81972 cumulative IPC: 0.68750 (Simulation time: 0 hr 21 min 23 sec) 
Heartbeat CPU  0 instructions:  509000000 cycles:  631158535 heartbeat IPC: 0.82390 cumulative IPC: 0.68778 (Simulation time: 0 hr 21 min 25 sec) 
Heartbeat CPU  0 instructions:  510000003 cycles:  632371828 heartbeat IPC: 0.82421 cumulative IPC: 0.68805 (Simulation time: 0 hr 21 min 28 sec) 
Heartbeat CPU  0 instructions:  511000003 cycles:  633592524 heartbeat IPC: 0.81920 cumulative IPC: 0.68832 (Simulation time: 0 hr 21 min 30 sec) 
Heartbeat CPU  0 instructions:  512000000 cycles:  634815090 heartbeat IPC: 0.81795 cumulative IPC: 0.68859 (Simulation time: 0 hr 21 min 33 sec) 
[...]
scooby_state_42fc18|32|0 4,0,0,0,0,0,0,0,0,0,0,0,0,0,0,4,
scooby_state_4158ce|15|0 1,0,1,1,0,0,0,0,0,0,0,0,0,0,0,3,
scooby_state_40a425|23|8 3,0,0,0,0,0,0,0,0,0,0,0,0,0,0,3,
scooby_state_415740|22|0 2,0,0,0,0,0,0,0,0,1,0,0,0,0,0,3,
scooby_state_4112b0|39|0 3,0,0,0,0,0,0,0,0,0,0,0,0,0,0,3,
scooby_state_4158a0|22|0 3,0,0,0,0,0,0,0,0,0,0,0,0,0,0,3,
scooby_state_415759|25|-4 1,2,0,0,0,0,0,0,0,0,0,0,0,0,0,3,
scooby_state_40a463|16|0 3,0,0,0,0,0,0,0,0,0,0,0,0,0,0,3,
scooby_state_40a443|32|7 2,0,0,0,0,0,0,0,0,0,0,0,0,0,0,2,
scooby_state_42d6c8|43|2 1,0,0,0,0,0,0,0,0,1,0,0,0,0,0,2,
scooby_state_43172e|41|0 2,0,0,0,0,0,0,0,0,0,0,0,0,0,0,2,
scooby_state_40a1b8|23|7 1,1,0,0,0,0,0,0,0,0,0,0,0,0,0,2,
scooby_state_4158ab|18|0 2,0,0,0,0,0,0,0,0,0,0,0,0,0,0,2,
scooby_state_42d70c|11|-2 2,0,0,0,0,0,0,0,0,0,0,0,0,0,0,2,
scooby_state_42fc3b|41|0 2,0,0,0,0,0,0,0,0,0,0,0,0,0,0,2,
scooby_state_433106|15|0 2,0,0,0,0,0,0,0,0,0,0,0,0,0,0,2,
scooby_state_42d66e|13|0 1,1,0,0,0,0,0,0,0,0,0,0,0,0,0,2,
scooby_state_40a64d|16|0 0,0,0,0,0,0,0,0,0,1,1,0,0,0,0,2,
scooby_state_40a62d|32|0 2,0,0,0,0,0,0,0,0,0,0,0,0,0,0,2,
scooby_state_40a198|29|0 2,0,0,0,0,0,0,0,0,0,0,0,0,0,0,2,
scooby_state_42e3f7|10|0 2,0,0,0,0,0,0,0,0,0,0,0,0,0,0,2,
scooby_state_40a362|17|1 1,1,0,0,0,0,0,0,0,0,0,0,0,0,0,2,
scooby_state_42fb7b|5|0 2,0,0,0,0,0,0,0,0,0,0,0,0,0,0,2,
scooby_state_415720|29|0 2,0,0,0,0,0,0,0,0,0,0,0,0,0,0,2,
scooby_state_42fc4d|43|2 2,0,0,0,0,0,0,0,0,0,0,0,0,0,0,2,
scooby_state_43839e|3|-26 1,1,0,0,0,0,0,0,0,0,0,0,0,0,0,2,
scooby_state_42fc57|23|0 2,0,0,0,0,0,0,0,0,0,0,0,0,0,0,2,
scooby_state_42e01f|13|3 2,0,0,0,0,0,0,0,0,0,0,0,0,0,0,2,
scooby_state_415878|29|0 2,0,0,0,0,0,0,0,0,0,0,0,0,0,0,2,
scooby_state_42e3f7|10|-1 2,0,0,0,0,0,0,0,0,0,0,0,0,0,0,2,
scooby_state_40a1ae|16|1 1,1,0,0,0,0,0,0,0,0,0,0,0,0,0,2,
scooby_state_415720|29|-3 2,0,0,0,0,0,0,0,0,0,0,0,0,0,0,2,
scooby_state_433106|15|-3 2,0,0,0,0,0,0,0,0,0,0,0,0,0,0,2,
scooby_state_40c007|25|-4 2,0,0,0,0,0,0,0,0,0,0,0,0,0,0,2,
scooby_state_43839e|3|0 0,0,0,0,0,0,0,0,1,0,1,0,0,0,0,2,
scooby_state_431758|23|0 2,0,0,0,0,0,0,0,0,0,0,0,0,0,0,2,
scooby_state_42b5ec|5|0 2,0,0,0,0,0,0,0,0,0,0,0,0,0,0,2,
scooby_state_42dbb4|12|1 1,0,0,0,0,0,0,0,0,1,0,0,0,0,0,2,
scooby_state_43177e|25|0 2,0,0,0,0,0,0,0,0,0,0,0,0,0,0,2,
scooby_state_40c037|60|35 2,0,0,0,0,0,0,0,0,0,0,0,0,0,0,2,
scooby_state_42fc2c|25|0 2,0,0,0,0,0,0,0,0,0,0,0,0,0,0,2,
scooby_state_40a60d|23|8 2,0,0,0,0,0,0,0,0,0,0,0,0,0,0,2,
scooby_state_40a40a|25|0 2,0,0,0,0,0,0,0,0,0,0,0,0,0,0,2,
scooby_state_42d9b5|23|0 2,0,0,0,0,0,0,0,0,0,0,0,0,0,0,2,
scooby_state_40c001|29|26 2,0,0,0,0,0,0,0,0,0,0,0,0,0,0,2,
scooby_state_42d9c3|39|1 1,0,0,0,0,0,0,0,0,0,0,0,0,0,0,1,
scooby_state_410c82|50|0 1,0,0,0,0,0,0,0,0,0,0,0,0,0,0,1,
scooby_state_42fb82|46|1 1,0,0,0,0,0,0,0,0,0,0,0,0,0,0,1,
scooby_state_410c5f|15|0 1,0,0,0,0,0,0,0,0,0,0,0,0,0,0,1,
scooby_state_42fc11|48|2 1,0,0,0,0,0,0,0,0,0,0,0,0,0,0,1,
scooby_state_431753|29|1 0,1,0,0,0,0,0,0,0,0,0,0,0,0,0,1,
scooby_state_410c8f|55|0 1,0,0,0,0,0,0,0,0,0,0,0,0,0,0,1,
scooby_state_42e101|4|2 1,0,0,0,0,0,0,0,0,0,0,0,0,0,0,1,
scooby_state_40c082|2|0 0,1,0,0,0,0,0,0,0,0,0,0,0,0,0,1,
scooby_state_42e5c2|23|1 1,0,0,0,0,0,0,0,0,0,0,0,0,0,0,1,
scooby_state_40a770|29|0 1,0,0,0,0,0,0,0,0,0,0,0,0,0,0,1,
scooby_state_410d41|53|1 1,0,0,0,0,0,0,0,0,0,0,0,0,0,0,1,
scooby_state_42e085|2|2 1,0,0,0,0,0,0,0,0,0,0,0,0,0,0,1,
scooby_state_40a7c0|31|0 1,0,0,0,0,0,0,0,0,0,0,0,0,0,0,1,
scooby_state_40a170|5|0 1,0,0,0,0,0,0,0,0,0,0,0,0,0,0,1,
scooby_state_40bfa3|24|0 1,0,0,0,0,0,0,0,0,0,0,0,0,0,0,1,
scooby_state_40bfab|18|-6 1,0,0,0,0,0,0,0,0,0,0,0,0,0,0,1,
scooby_state_40c170|5|0 1,0,0,0,0,0,0,0,0,0,0,0,0,0,0,1,
scooby_state_40bf80|62|1 0,1,0,0,0,0,0,0,0,0,0,0,0,0,0,1,
scooby_state_40c183|6|1 1,0,0,0,0,0,0,0,0,0,0,0,0,0,0,1,
scooby_state_42e7c2|12|-1 1,0,0,0,0,0,0,0,0,0,0,0,0,0,0,1,
scooby_state_42e003|0|0 1,0,0,0,0,0,0,0,0,0,0,0,0,0,0,1,
scooby_state_42ebc3|47|1 1,0,0,0,0,0,0,0,0,0,0,0,0,0,0,1,
scooby_state_40a840|33|1 1,0,0,0,0,0,0,0,0,0,0,0,0,0,0,1,
scooby_state_40a781|30|0 1,0,0,0,0,0,0,0,0,0,0,0,0,0,0,1,
scooby_state_40a840|32|29 0,0,0,0,0,0,0,0,0,0,1,0,0,0,0,1,
scooby_state_415740|22|-3 1,0,0,0,0,0,0,0,0,0,0,0,0,0,0,1,
scooby_state_40a712|23|8 1,0,0,0,0,0,0,0,0,0,0,0,0,0,0,1,
scooby_state_411492|23|0 1,0,0,0,0,0,0,0,0,0,0,0,0,0,0,1,
scooby_state_42d9b5|38|11 1,0,0,0,0,0,0,0,0,0,0,0,0,0,0,1,
scooby_state_415882|34|1 1,0,0,0,0,0,0,0,0,0,0,0,0,0,0,1,
scooby_state_40a183|6|1 0,1,0,0,0,0,0,0,0,0,0,0,0,0,0,1,
scooby_state_40a766|16|0 1,0,0,0,0,0,0,0,0,0,0,0,0,0,0,1,
scooby_state_40a740|29|0 1,0,0,0,0,0,0,0,0,0,0,0,0,0,0,1,
scooby_state_40a6d8|27|6 1,0,0,0,0,0,0,0,0,0,0,0,0,0,0,1,
scooby_state_411041|1|1 1,0,0,0,0,0,0,0,0,0,0,0,0,0,0,1,
scooby_state_411030|0|-12 1,0,0,0,0,0,0,0,0,0,0,0,0,0,0,1,
scooby_state_42dfe0|63|0 1,0,0,0,0,0,0,0,0,0,0,0,0,0,0,1,
scooby_state_42e141|5|-22 0,1,0,0,0,0,0,0,0,0,0,0,0,0,0,1,
scooby_state_411304|12|1 1,0,0,0,0,0,0,0,0,0,0,0,0,0,0,1,
scooby_state_4112c1|11|1 1,0,0,0,0,0,0,0,0,0,0,0,0,0,0,1,
scooby_state_40c001|0|0 1,0,0,0,0,0,0,0,0,0,0,0,0,0,0,1,
scooby_state_465390|14|0 1,0,0,0,0,0,0,0,0,0,0,0,0,0,0,1,
scooby_state_410c8f|23|0 1,0,0,0,0,0,0,0,0,0,0,0,0,0,0,1,
scooby_state_42fbf1|47|-6 1,0,0,0,0,0,0,0,0,0,0,0,0,0,0,1,
scooby_state_4114c2|19|1 1,0,0,0,0,0,0,0,0,0,0,0,0,0,0,1,
scooby_state_42b616|24|1 1,0,0,0,0,0,0,0,0,0,0,0,0,0,0,1,
scooby_state_4383c1|15|1 1,0,0,0,0,0,0,0,0,0,0,0,0,0,0,1,
scooby_state_42b5a0|22|0 1,0,0,0,0,0,0,0,0,0,0,0,0,0,0,1,
scooby_state_42db1c|44|-3 1,0,0,0,0,0,0,0,0,0,0,0,0,0,0,1,
scooby_state_42dbd7|47|21 1,0,0,0,0,0,0,0,0,0,0,0,0,0,0,1,
scooby_state_42d7c2|31|1 1,0,0,0,0,0,0,0,0,0,0,0,0,0,0,1,
scooby_state_4317c3|31|1 1,0,0,0,0,0,0,0,0,0,0,0,0,0,0,1,
scooby_state_410bec|47|0 1,0,0,0,0,0,0,0,0,0,0,0,0,0,0,1,
scooby_state_411082|2|1 1,0,0,0,0,0,0,0,0,0,0,0,0,0,0,1,
scooby_state_40a2d1|11|0 1,0,0,0,0,0,0,0,0,0,0,0,0,0,0,1,
scooby_state_42fc82|50|1 1,0,0,0,0,0,0,0,0,0,0,0,0,0,0,1,
scooby_state_40bee0|59|0 1,0,0,0,0,0,0,0,0,0,0,0,0,0,0,1,
scooby_state_42d620|24|0 1,0,0,0,0,0,0,0,0,0,0,0,0,0,0,1,
scooby_state_42d6c8|27|2 1,0,0,0,0,0,0,0,0,0,0,0,0,0,0,1,
scooby_state_410bfe|32|0 1,0,0,0,0,0,0,0,0,0,0,0,0,0,0,1,
scooby_state_42ee22|56|7 1,0,0,0,0,0,0,0,0,0,0,0,0,0,0,1,
scooby_state_40a550|21|13 1,0,0,0,0,0,0,0,0,0,0,0,0,0,0,1,
scooby_state_40a230|8|-3 1,0,0,0,0,0,0,0,0,0,0,0,0,0,0,1,
scooby_state_411490|18|0 1,0,0,0,0,0,0,0,0,0,0,0,0,0,0,1,
scooby_state_42d6e9|23|0 1,0,0,0,0,0,0,0,0,0,0,0,0,0,0,1,
scooby_state_40bf41|61|1 1,0,0,0,0,0,0,0,0,0,0,0,0,0,0,1,
scooby_state_40a451|29|0 1,0,0,0,0,0,0,0,0,0,0,0,0,0,0,1,
scooby_state_40a242|9|0 1,0,0,0,0,0,0,0,0,0,0,0,0,0,0,1,
scooby_state_42d705|28|-11 1,0,0,0,0,0,0,0,0,0,0,0,0,0,0,1,
scooby_state_415940|37|0 1,0,0,0,0,0,0,0,0,0,0,0,0,0,0,1,
scooby_state_42d777|29|1 1,0,0,0,0,0,0,0,0,0,0,0,0,0,0,1,
scooby_state_42e429|11|-2 1,0,0,0,0,0,0,0,0,0,0,0,0,0,0,1,
scooby_state_42ec44|49|1 1,0,0,0,0,0,0,0,0,0,0,0,0,0,0,1,
scooby_state_42fc40|49|1 1,0,0,0,0,0,0,0,0,0,0,0,0,0,0,1,
scooby_state_42d781|30|1 1,0,0,0,0,0,0,0,0,0,0,0,0,0,0,1,
scooby_state_40a1ca|25|-4 1,0,0,0,0,0,0,0,0,0,0,0,0,0,0,1,
scooby_state_40bfc1|63|1 1,0,0,0,0,0,0,0,0,0,0,0,0,0,0,1,
scooby_state_410c8f|47|0 1,0,0,0,0,0,0,0,0,0,0,0,0,0,0,1,
scooby_state_4158c3|35|1 1,0,0,0,0,0,0,0,0,0,0,0,0,0,0,1,
scooby_state_42e902|36|1 1,0,0,0,0,0,0,0,0,0,0,0,0,0,0,1,
scooby_state_40a420|16|-1 1,0,0,0,0,0,0,0,0,0,0,0,0,0,0,1,
scooby_state_40a6d8|32|0 1,0,0,0,0,0,0,0,0,0,0,0,0,0,0,1,
scooby_state_410cc5|51|1 0,1,0,0,0,0,0,0,0,0,0,0,0,0,0,1,
scooby_state_42b640|25|1 1,0,0,0,0,0,0,0,0,0,0,0,0,0,0,1,
scooby_state_40a370|13|4 1,0,0,0,0,0,0,0,0,0,0,0,0,0,0,1,
scooby_state_431785|30|1 0,0,0,0,0,0,0,0,1,0,0,0,0,0,0,1,
scooby_state_410d03|52|1 1,0,0,0,0,0,0,0,0,0,0,0,0,0,0,1,
scooby_state_40a520|20|7 1,0,0,0,0,0,0,0,0,0,0,0,0,0,0,1,
scooby_state_42e1c2|7|2 1,0,0,0,0,0,0,0,0,0,0,0,0,0,0,1,
scooby_state_40a2a8|10|0 1,0,0,0,0,0,0,0,0,0,0,0,0,0,0,1,
scooby_state_40a6c4|16|0 1,0,0,0,0,0,0,0,0,0,0,0,0,0,0,1,
scooby_state_40a1c3|29|26 1,0,0,0,0,0,0,0,0,0,0,0,0,0,0,1,
scooby_state_415878|33|2 0,0,0,0,0,0,0,0,0,1,0,0,0,0,0,1,
scooby_state_40a4c0|19|1 1,0,0,0,0,0,0,0,0,0,0,0,0,0,0,1,
scooby_state_40a643|25|1 0,1,0,0,0,0,0,0,0,0,0,0,0,0,0,1,
scooby_state_410c41|49|1 1,0,0,0,0,0,0,0,0,0,0,0,0,0,0,1,
scooby_state_40a1c3|7|1 1,0,0,0,0,0,0,0,0,0,0,0,0,0,0,1,
scooby_state_40c041|1|1 1,0,0,0,0,0,0,0,0,0,0,0,0,0,0,1,
scooby_state_42e7c2|12|2 1,0,0,0,0,0,0,0,0,0,0,0,0,0,0,1,
scooby_state_42e070|1|-27 1,0,0,0,0,0,0,0,0,0,0,0,0,0,0,1,
scooby_state_410c8f|15|0 1,0,0,0,0,0,0,0,0,0,0,0,0,0,0,1,
scooby_state_40a80e|32|0 0,0,0,0,0,0,0,0,0,1,0,0,0,0,0,1,
scooby_state_410b70|45|-1 1,0,0,0,0,0,0,0,0,0,0,0,0,0,0,1,
scooby_state_410bf4|36|0 1,0,0,0,0,0,0,0,0,0,0,0,0,0,0,1,
scooby_state_40c072|18|0 1,0,0,0,0,0,0,0,0,0,0,0,0,0,0,1,
scooby_state_42e9d4|39|8 1,0,0,0,0,0,0,0,0,0,0,0,0,0,0,1,
scooby_state_42e429|11|1 1,0,0,0,0,0,0,0,0,0,0,0,0,0,0,1,
scooby_state_415930|36|0 1,0,0,0,0,0,0,0,0,0,0,0,0,0,0,1,
scooby_state_40a740|32|0 1,0,0,0,0,0,0,0,0,0,0,0,0,0,0,1,
scooby_state_40a5d9|23|0 1,0,0,0,0,0,0,0,0,0,0,0,0,0,0,1,
scooby_state_42e4c1|19|1 1,0,0,0,0,0,0,0,0,0,0,0,0,0,0,1,
scooby_state_40bf05|60|1 1,0,0,0,0,0,0,0,0,0,0,0,0,0,0,1,
scooby_state_42b5c5|23|1 1,0,0,0,0,0,0,0,0,0,0,0,0,0,0,1,
scooby_state_40a708|28|0 1,0,0,0,0,0,0,0,0,0,0,0,0,0,0,1,
scooby_state_410c03|48|1 1,0,0,0,0,0,0,0,0,0,0,0,0,0,0,1,
scooby_state_40a4f1|32|0 1,0,0,0,0,0,0,0,0,0,0,0,0,0,0,1,
scooby_state_415878|29|-3 1,0,0,0,0,0,0,0,0,0,0,0,0,0,0,1,
scooby_state_40a496|25|-4 1,0,0,0,0,0,0,0,0,0,0,0,0,0,0,1,
scooby_state_40a48f|29|0 1,0,0,0,0,0,0,0,0,0,0,0,0,0,0,1,
scooby_state_40a23b|23|8 1,0,0,0,0,0,0,0,0,0,0,0,0,0,0,1,
scooby_state_410b8f|46|0 1,0,0,0,0,0,0,0,0,0,0,0,0,0,0,1,
scooby_state_40bf36|8|1 1,0,0,0,0,0,0,0,0,0,0,0,0,0,0,1,
scooby_state_40a671|25|0 0,0,0,0,0,0,0,0,0,1,0,0,0,0,0,1,
scooby_state_40a6a4|32|7 0,0,0,0,0,0,0,0,0,1,0,0,0,0,0,1,
scooby_state_40a45e|17|0 1,0,0,0,0,0,0,0,0,0,0,0,0,0,0,1,
scooby_state_40a83d|32|0 1,0,0,0,0,0,0,0,0,0,0,0,0,0,0,1,
scooby_state_42d6b9|26|-20 1,0,0,0,0,0,0,0,0,0,0,0,0,0,0,1,
scooby_state_40a4f8|16|0 1,0,0,0,0,0,0,0,0,0,0,0,0,0,0,1,
scooby_state_42fe9a|58|8 1,0,0,0,0,0,0,0,0,0,0,0,0,0,0,1,
scooby_state_4158ab|17|0 1,0,0,0,0,0,0,0,0,0,0,0,0,0,0,1,
scooby_state_40a3f9|15|0 1,0,0,0,0,0,0,0,0,0,0,0,0,0,0,1,
scooby_state_42dba5|46|15 1,0,0,0,0,0,0,0,0,0,0,0,0,0,0,1,
scooby_state_42e8c2|35|1 1,0,0,0,0,0,0,0,0,0,0,0,0,0,0,1,
scooby_state_42e89f|34|-22 1,0,0,0,0,0,0,0,0,0,0,0,0,0,0,1,
scooby_state_42e710|28|-8 1,0,0,0,0,0,0,0,0,0,0,0,0,0,0,1,
scooby_state_40a777|25|-4 1,0,0,0,0,0,0,0,0,0,0,0,0,0,0,1,
scooby_state_4157f0|31|0 1,0,0,0,0,0,0,0,0,0,0,0,0,0,0,1,
scooby_state_42ec06|48|1 1,0,0,0,0,0,0,0,0,0,0,0,0,0,0,1,
scooby_state_42eba2|46|14 1,0,0,0,0,0,0,0,0,0,0,0,0,0,0,1,
scooby_state_42e81f|32|-7 1,0,0,0,0,0,0,0,0,0,0,0,0,0,0,1,
scooby_state_40a601|24|1 0,0,0,0,0,0,0,0,1,0,0,0,0,0,0,1,
scooby_state_42e7c2|31|12 1,0,0,0,0,0,0,0,0,0,0,0,0,0,0,1,
scooby_state_42e49d|18|1 1,0,0,0,0,0,0,0,0,0,0,0,0,0,0,1,
scooby_state_42e440|17|1 1,0,0,0,0,0,0,0,0,0,0,0,0,0,0,1,
scooby_state_40a680|26|0 1,0,0,0,0,0,0,0,0,0,0,0,0,0,0,1,
scooby_state_42e40a|16|1 1,0,0,0,0,0,0,0,0,0,0,0,0,0,0,1,
scooby_state_42e3df|15|8 1,0,0,0,0,0,0,0,0,0,0,0,0,0,0,1,
scooby_state_42e6c0|27|1 1,0,0,0,0,0,0,0,0,0,0,0,0,0,0,1,
scooby_state_40a34e|16|0 1,0,0,0,0,0,0,0,0,0,0,0,0,0,0,1,
scooby_state_4112b0|10|0 1,0,0,0,0,0,0,0,0,0,0,0,0,0,0,1,
scooby_state_415740|29|1 1,0,0,0,0,0,0,0,0,0,0,0,0,0,0,1,
scooby_state_431720|28|0 0,1,0,0,0,0,0,0,0,0,0,0,0,0,0,1,
scooby_state_40a478|23|8 1,0,0,0,0,0,0,0,0,0,0,0,0,0,0,1,
scooby_state_42e5a6|22|18 0,0,0,0,0,0,0,0,0,0,1,0,0,0,0,1,
scooby_state_42fb50|45|0 1,0,0,0,0,0,0,0,0,0,0,0,0,0,0,1,
scooby_state_433110|4|2 1,0,0,0,0,0,0,0,0,0,0,0,0,0,0,1,
scooby_state_42d642|25|1 1,0,0,0,0,0,0,0,0,0,0,0,0,0,0,1,
scooby_state_415720|28|2 1,0,0,0,0,0,0,0,0,0,0,0,0,0,0,1,
scooby_state_4330d8|3|-2 1,0,0,0,0,0,0,0,0,0,0,0,0,0,0,1,
scooby_state_433140|5|1 1,0,0,0,0,0,0,0,0,0,0,0,0,0,0,1,
scooby_state_42e6a1|26|3 1,0,0,0,0,0,0,0,0,0,0,0,0,0,0,1,
scooby_state_433091|2|1 1,0,0,0,0,0,0,0,0,0,0,0,0,0,0,1,
scooby_state_42fcc3|51|-7 1,0,0,0,0,0,0,0,0,0,0,0,0,0,0,1,
scooby_state_432780|30|0 1,0,0,0,0,0,0,0,0,0,0,0,0,0,0,1,
scooby_state_433050|1|0 1,0,0,0,0,0,0,0,0,0,0,0,0,0,0,1,
scooby_state_40a485|18|0 1,0,0,0,0,0,0,0,0,0,0,0,0,0,0,1,
scooby_state_415690|26|-11 1,0,0,0,0,0,0,0,0,0,0,0,0,0,0,1,
scooby_state_40a443|32|0 1,0,0,0,0,0,0,0,0,0,0,0,0,0,0,1,
scooby_state_438390|14|0 1,0,0,0,0,0,0,0,0,0,0,0,0,0,0,1,
scooby_state_410b84|46|-3 1,0,0,0,0,0,0,0,0,0,0,0,0,0,0,1,
scooby_state_40bf36|7|0 1,0,0,0,0,0,0,0,0,0,0,0,0,0,0,1,
scooby_state_42fd70|53|2 1,0,0,0,0,0,0,0,0,0,0,0,0,0,0,1,

scooby_action_0_deg_dist 0,1166,0,0,0,0,0,0,0,0,0,0,0,0,0,0,
scooby_action_-6_deg_dist 0,1134,0,0,0,0,0,0,0,0,0,0,0,0,0,0,
scooby_action_4_deg_dist 0,1322,0,0,0,0,0,0,0,0,0,0,0,0,0,0,
scooby_action_1_deg_dist 0,3193405,1433033,0,1187214,0,1499049,0,0,0,0,0,0,0,0,0,
scooby_action_30_deg_dist 0,1119154,92606,0,65520,0,121308,0,0,0,0,0,0,0,0,0,
scooby_action_5_deg_dist 0,1281,0,0,0,0,0,0,0,0,0,0,0,0,0,0,
scooby_action_10_deg_dist 0,1348,0,0,0,0,0,0,0,0,0,0,0,0,0,0,
scooby_action_3_deg_dist 0,1392,0,0,0,0,0,0,0,0,0,0,0,0,0,0,
scooby_action_32_deg_dist 0,636245,20,0,0,0,0,0,0,0,0,0,0,0,0,0,
scooby_action_11_deg_dist 0,1333,0,0,0,0,0,0,0,0,0,0,0,0,0,0,
scooby_action_12_deg_dist 0,1369,0,0,0,0,0,0,0,0,0,0,0,0,0,0,
scooby_action_22_deg_dist 0,1282,0,0,0,0,0,0,0,0,0,0,0,0,0,0,
scooby_action_23_deg_dist 0,112267,0,0,0,0,0,0,0,0,0,0,0,0,0,0,
scooby_action_-1_deg_dist 0,1159,0,0,0,0,0,0,0,0,0,0,0,0,0,0,
scooby_action_-3_deg_dist 0,1128,0,0,0,0,0,0,0,0,0,0,0,0,0,0,

scooby_track_called 9473735
scooby_track_same_address 596643
scooby_track_evict 8876836

scooby_reward_demand_called 9473735
scooby_reward_demand_pt_not_found 2426532
scooby_reward_demand_pt_found 7047203
scooby_reward_demand_pt_found_total 7047203
scooby_reward_demand_has_reward 0
scooby_reward_train_called 766104
scooby_reward_assign_reward_called 8877089
scooby_reward_no_pref 1166
scooby_reward_incorrect 764938
scooby_reward_correct_untimely 5054426
scooby_reward_correct_timely 1992777
scooby_reward_out_of_bounds 1063782
scooby_reward_tracker_hit 0

scooby_reward_none_low_bw 1166
scooby_reward_none_high_bw 0
scooby_reward_incorrect_low_bw 764938
scooby_reward_incorrect_high_bw 0
scooby_reward_correct_untimely_low_bw 5054426
scooby_reward_correct_untimely_high_bw 0
scooby_reward_correct_timely_low_bw 1992777
scooby_reward_correct_timely_high_bw 0
scooby_reward_out_of_bounds_low_bw 1063782
scooby_reward_out_of_bounds_high_bw 0
scooby_reward_tracker_hit_low_bw 0
scooby_reward_tracker_hit_high_bw 0

scooby_reward_1 0,642452,4742679,1283603,124489,0,
scooby_reward_3 0,920,175,127,154,0,
scooby_reward_4 0,853,130,107,216,0,
scooby_reward_5 0,788,62,141,280,0,
scooby_reward_10 0,890,2,159,280,0,
scooby_reward_11 0,835,2,175,295,0,
scooby_reward_12 0,864,5,169,310,0,
scooby_reward_22 0,769,0,118,373,0,
scooby_reward_23 0,111719,0,104,425,0,
scooby_reward_30 0,2517,265370,437132,617525,0,
scooby_reward_32 0,20,46001,270942,319302,0,
scooby_reward_-1 0,538,0,0,25,0,
scooby_reward_-3 0,867,0,0,25,0,
scooby_reward_-6 0,906,0,0,83,0,
scooby_reward_0 1166,0,0,0,0,0,

scooby_train_called 8876835
scooby_train_compute_reward 766104

scooby_register_fill_called 5997461
scooby_register_fill_set 2579311
scooby_register_fill_set_total 2579311

scooby_register_prefetch_hit_called 5435626
scooby_register_prefetch_hit_set 1884855
scooby_register_prefetch_hit_set_total 1884855

scooby_pref_issue_scooby 17379162

learning_engine_featurewise.action.called 9473735
learning_engine_featurewise.action.explore 17179
learning_engine_featurewise.action.exploit 9456556
learning_engine_featurewise.action.fallback 0
learning_engine_featurewise.action.dyn_fallback_saved_bw 0
learning_engine_featurewise.action.dyn_fallback_saved_bw_acc 739468
learning_engine_featurewise.action.index_1_explored 1174
learning_engine_featurewise.action.index_1_exploited 7311527
learning_engine_featurewise.action.index_3_explored 1138
learning_engine_featurewise.action.index_3_exploited 254
learning_engine_featurewise.action.index_4_explored 1143
learning_engine_featurewise.action.index_4_exploited 179
learning_engine_featurewise.action.index_5_explored 1110
learning_engine_featurewise.action.index_5_exploited 171
learning_engine_featurewise.action.index_10_explored 1174
learning_engine_featurewise.action.index_10_exploited 174
learning_engine_featurewise.action.index_11_explored 1153
learning_engine_featurewise.action.index_11_exploited 180
learning_engine_featurewise.action.index_12_explored 1195
learning_engine_featurewise.action.index_12_exploited 174
learning_engine_featurewise.action.index_22_explored 1153
learning_engine_featurewise.action.index_22_exploited 129
learning_engine_featurewise.action.index_23_explored 1132
learning_engine_featurewise.action.index_23_exploited 111135
learning_engine_featurewise.action.index_30_explored 1124
learning_engine_featurewise.action.index_30_exploited 1397464
learning_engine_featurewise.action.index_32_explored 1096
learning_engine_featurewise.action.index_32_exploited 635169
learning_engine_featurewise.action.index_-1_explored 1159
learning_engine_featurewise.action.index_-1_exploited 0
learning_engine_featurewise.action.index_-3_explored 1128
learning_engine_featurewise.action.index_-3_exploited 0
learning_engine_featurewise.action.index_-6_explored 1134
learning_engine_featurewise.action.index_-6_exploited 0
learning_engine_featurewise.action.index_0_explored 1166
learning_engine_featurewise.action.index_0_exploited 0
learning_engine_featurewise.learn.called 8876835
learning_engine_featurewise.learn.su_skip_PC 0
learning_engine_featurewise.learn.su_skip_PC_Delta 0

learning_engine_featurewise.q_value_histogram.bucket_0 0
learning_engine_featurewise.q_value_histogram.bucket_1 0
learning_engine_featurewise.q_value_histogram.bucket_2 0
learning_engine_featurewise.q_value_histogram.bucket_3 0
learning_engine_featurewise.q_value_histogram.bucket_4 3742
learning_engine_featurewise.q_value_histogram.bucket_5 241593
learning_engine_featurewise.q_value_histogram.bucket_6 9211221
learning_engine_featurewise.q_value_histogram.bucket_7 0

learning_engine_featurewise.consensus.total 9456556
learning_engine_featurewise.consensus.feature_align_PC 9237886
learning_engine_featurewise.consensus.feature_align_PC_ratio 0.98
learning_engine_featurewise.consensus.feature_align_PC_Delta 9202905
learning_engine_featurewise.consensus.feature_align_PC_Delta_ratio 0.97
learning_engine_featurewise.consensus.feature_align_all 8984235
learning_engine_featurewise.consensus.feature_align_all_ratio 0.95

learning_engine_featurewise.feature_PC_min_weight 1000000.00000000
learning_engine_featurewise.feature_PC_max_weight 0.00000000
learning_engine_featurewise.feature_PC_Delta_min_weight 1000000.00000000
learning_engine_featurewise.feature_PC_Delta_max_weight 0.00000000
unique_pcs 218
unique_pages 92218
unique_trigger_pcs 98
total_bitmaps_seen 0
unique_bitmaps_seen 0

scooby_bw_epochs 3299852
scooby_bw_level_0 545956
scooby_bw_level_1 1761660
scooby_bw_level_2 849789
scooby_bw_level_3 142447

scooby_ipc_epochs 0
scooby_ipc_level_0 0
scooby_ipc_level_1 0
scooby_ipc_level_2 0
scooby_ipc_level_3 0

scooby_cache_acc_epochs 729622
scooby_cache_acc_level_0 426
scooby_cache_acc_level_1 3101
scooby_cache_acc_level_2 55670
scooby_cache_acc_level_3 148798
scooby_cache_acc_level_4 65813
scooby_cache_acc_level_5 51968
scooby_cache_acc_level_6 43598
scooby_cache_acc_level_7 52630
scooby_cache_acc_level_8 81002
scooby_cache_acc_level_9 226616

Channel_0_RQ_row_buffer_hit 5698547
Channel_0_RQ_row_buffer_miss 7949393
Channel_0_WQ_row_buffer_hit 2069567
Channel_0_WQ_row_buffer_miss 2597918
Channel_0_WQ_full 4494
Channel_0_dbus_congested 8702560

avg_congested_cycle 10

DRAM_bw_pochs 3299852
DRAM_bw_level_0 545956
DRAM_bw_level_1 1761660
DRAM_bw_level_2 849789
DRAM_bw_level_3 142447
