*************************************************
   ChampSim Multicore Out-of-Order Simulator
   Last compiled: Nov 21 2024 21:50:18
*************************************************
parsing config file: /home/shichen/os/compile-time-prefetcher-classification/ChampSim/config/pythia.ini

trace_0 /home/shichen/os/compile-time-prefetcher-classification/ChampSim/traces/459.GemsFDTD-1491B.champsimtrace.xz
adding L2C_PREFETCHER: Scooby
Initialize SHIP state
warmup_instructions 100000000
simulation_instructions 500000000
champsim_seed 273
measure_ipc 0
measure_ipc_epoch 1000
measure_dram_bw 1
measure_dram_bw_epoch 256
measure_cache_acc 1
measure_cache_acc_epoch 1024
l1d_perfect 0
l2c_perfect 0
llc_perfect 0
l1d_semi_perfect 0
l2c_semi_perfect 0
llc_semi_perfect 0
semi_perfect_cache_page_buffer_size 64

num_cpus 1
cpu_freq 4000
dram_io_freq 2400
page_size 4096
block_size 64
max_read_per_cycle 8
max_fill_per_cycle 1
dram_channels 1
log2_dram_channels 0
dram_ranks 1
dram_banks 8
dram_rows 65536
dram_columns 128
dram_row_size 8
dram_size 4096
dram_pages 1048576

fetch_width 6
decode_width 6
exec_width 4
lq_width 2
sq_width 2
retire_width 4
scheduler_size 128
branch_mispredict_penalty 20
rob_size 256
lq_size 72
sq_size 56
num_instr_destinations_sparc 4
num_instr_destinations 2
num_instr_sources 4

itlb_set 16
itlb_way 8
itlb_rq_size 16
itlb_wq_size 16
itlb_pq_size 0
itlb_mshr_size 8
itlb_latency 1

dtlb_set 16
dtlb_way 4
dtlb_rq_size 16
dtlb_wq_size 16
dtlb_pq_size 0
dtlb_mshr_size 8
dtlb_latency 1

stlb_set 128
stlb_way 12
stlb_rq_size 32
stlb_wq_size 32
stlb_pq_size 0
stlb_mshr_size 16
stlb_latency 8

l1i_size 32
l1i_set 64
l1i_way 8
l1i_rq_size 64
l1i_wq_size 64
l1i_pq_size 8
l1i_mshr_size 8
l1i_latency 1

l1d_size 32
l1d_set 64
l1d_way 8
l1d_rq_size 64
l1d_wq_size 64
l1d_pq_size 8
l1d_mshr_size 16
l1d_latency 4

l2c_size 256
l2c_set 512
l2c_way 8
l2c_rq_size 32
l2c_wq_size 32
l2c_pq_size 32
l2c_mshr_size 32
l2c_latency 10

llc_size 2048
llc_set 2048
llc_way 16
llc_rq_size 32
llc_wq_size 32
llc_pq_size 32
llc_mshr_size 64
llc_latency 20

dram_channel_width 8
dram_wq_size 64
dram_rq_size 64
tRP 15
tRCD 15
tCAS 12.5
dram_dbus_turn_around_time 30
dram_write_high_wm 56
dram_write_low_wm 48
min_dram_writes_per_switch 16
dram_mtps 2400
dram_dbus_return_time 13

scooby_alpha 0.0065088
scooby_gamma 0.556301
scooby_epsilon 0.00182284
scooby_state_num_bits 10
scooby_max_states 1024
scooby_seed 200
scooby_policy EGreedy
scooby_learning_type SARSA
scooby_actions 1,3,4,5,10,11,12,22,23,30,32,-1,-3,-6,0,
scooby_max_actions 15
scooby_pt_size 256
scooby_st_size 64
scooby_max_pcs 5
scooby_max_offsets 5
scooby_max_deltas 5
scooby_reward_none -4
scooby_reward_incorrect -8
scooby_reward_correct_untimely 12
scooby_reward_correct_timely 20
scooby_brain_zero_init 0
scooby_enable_reward_all 0
scooby_enable_track_multiple 0
scooby_enable_reward_out_of_bounds 1
scooby_reward_out_of_bounds -12
scooby_state_type 1
scooby_state_hash_type 11
scooby_access_debug 0
scooby_print_access_debug 0
scooby_print_access_debug_pc deadbeef
scooby_print_access_debug_pc_count 0
scooby_print_trace 0
scooby_enable_state_action_stats 1
scooby_enable_reward_tracker_hit 0
scooby_reward_tracker_hit -2
scooby_enable_featurewise_engine 1
scooby_pref_degree 1
scooby_enable_dyn_degree 1
scooby_max_to_avg_q_thresholds 0.5,1,2,
scooby_dyn_degrees 1,2,4,4,
scooby_multi_deg_select_type 2
scooby_last_pref_offset_conf_thresholds 1,3,8,
scooby_dyn_degrees_type2 1,2,4,6,
scooby_action_tracker_size 2
scooby_high_bw_thresh 4
scooby_enable_hbw_reward 1
scooby_reward_hbw_correct_timely 20
scooby_reward_hbw_correct_untimely 12
scooby_reward_hbw_incorrect -14
scooby_reward_hbw_none -2
scooby_reward_hbw_out_of_bounds -12
scooby_reward_hbw_tracker_hit -2
scooby_last_pref_offset_conf_thresholds_hbw 1,3,8,
scooby_dyn_degrees_type2_hbw 1,2,4,6,

le_enable_trace 0
le_trace_interval 0
le_trace_file_name 
le_trace_state 0
le_enable_score_plot 0
le_plot_file_name 
le_plot_actions 
le_enable_action_trace 0
le_action_trace_interval 0
le_action_trace_name 
le_enable_action_plot 0

le_featurewise_active_features PC, PC_Delta
le_featurewise_num_tilings 3,3,
le_featurewise_num_tiles 128,128,
le_featurewise_hash_types 2,2,
le_featurewise_enable_tiling_offset 1,1,
le_featurewise_max_q_thresh 0.5
le_featurewise_enable_action_fallback 1
le_featurewise_feature_weights 1,1,
le_featurewise_enable_dynamic_weight 0
le_featurewise_weight_gradient 0.001
le_featurewise_disable_adjust_weight_all_features_align 1
le_featurewise_selective_update 0
le_featurewise_pooling_type 2
le_featurewise_enable_dyn_action_fallback 1
le_featurewise_bw_acc_check_level 1
le_featurewise_acc_thresh 2
le_featurewise_enable_trace 0
le_featurewise_trace_feature_type 0
le_featurewise_trace_feature 
le_featurewise_trace_interval 0
le_featurewise_trace_record_count 0
le_featurewise_trace_file_name 
le_featurewise_enable_score_plot 0
le_featurewise_plot_actions 
le_featurewise_plot_file_name 


Heartbeat CPU  0 instructions:    1000001 cycles:     441179 heartbeat IPC: 2.26666 cumulative IPC: 2.26666 (Simulation time: 0 hr 0 min 2 sec) 
Heartbeat CPU  0 instructions:    2000000 cycles:     882304 heartbeat IPC: 2.26693 cumulative IPC: 2.26679 (Simulation time: 0 hr 0 min 4 sec) 
Heartbeat CPU  0 instructions:    3000002 cycles:    1323391 heartbeat IPC: 2.26713 cumulative IPC: 2.26691 (Simulation time: 0 hr 0 min 7 sec) 
Heartbeat CPU  0 instructions:    4000000 cycles:    1764479 heartbeat IPC: 2.26712 cumulative IPC: 2.26696 (Simulation time: 0 hr 0 min 9 sec) 
Heartbeat CPU  0 instructions:    5000002 cycles:    2205747 heartbeat IPC: 2.26620 cumulative IPC: 2.26681 (Simulation time: 0 hr 0 min 11 sec) 
Heartbeat CPU  0 instructions:    6000000 cycles:    2646792 heartbeat IPC: 2.26734 cumulative IPC: 2.26690 (Simulation time: 0 hr 0 min 13 sec) 
Heartbeat CPU  0 instructions:    7000001 cycles:    3087907 heartbeat IPC: 2.26698 cumulative IPC: 2.26691 (Simulation time: 0 hr 0 min 16 sec) 
Heartbeat CPU  0 instructions:    8000000 cycles:    3528888 heartbeat IPC: 2.26767 cumulative IPC: 2.26700 (Simulation time: 0 hr 0 min 18 sec) 
Heartbeat CPU  0 instructions:    9000000 cycles:    3969944 heartbeat IPC: 2.26729 cumulative IPC: 2.26703 (Simulation time: 0 hr 0 min 20 sec) 
Heartbeat CPU  0 instructions:   10000003 cycles:    4410991 heartbeat IPC: 2.26734 cumulative IPC: 2.26707 (Simulation time: 0 hr 0 min 23 sec) 
Heartbeat CPU  0 instructions:   11000002 cycles:    4852116 heartbeat IPC: 2.26693 cumulative IPC: 2.26705 (Simulation time: 0 hr 0 min 25 sec) 
Heartbeat CPU  0 instructions:   12000000 cycles:    5293337 heartbeat IPC: 2.26643 cumulative IPC: 2.26700 (Simulation time: 0 hr 0 min 27 sec) 
Heartbeat CPU  0 instructions:   13000001 cycles:    5734405 heartbeat IPC: 2.26723 cumulative IPC: 2.26702 (Simulation time: 0 hr 0 min 29 sec) 
Heartbeat CPU  0 instructions:   14000002 cycles:    6175524 heartbeat IPC: 2.26696 cumulative IPC: 2.26701 (Simulation time: 0 hr 0 min 32 sec) 
Heartbeat CPU  0 instructions:   15000000 cycles:    6616618 heartbeat IPC: 2.26709 cumulative IPC: 2.26702 (Simulation time: 0 hr 0 min 34 sec) 
Heartbeat CPU  0 instructions:   16000000 cycles:    7057693 heartbeat IPC: 2.26719 cumulative IPC: 2.26703 (Simulation time: 0 hr 0 min 36 sec) 
Heartbeat CPU  0 instructions:   17000002 cycles:    7498728 heartbeat IPC: 2.26740 cumulative IPC: 2.26705 (Simulation time: 0 hr 0 min 38 sec) 
Heartbeat CPU  0 instructions:   18000002 cycles:    7939809 heartbeat IPC: 2.26716 cumulative IPC: 2.26706 (Simulation time: 0 hr 0 min 41 sec) 
Heartbeat CPU  0 instructions:   19000001 cycles:    8381042 heartbeat IPC: 2.26637 cumulative IPC: 2.26702 (Simulation time: 0 hr 0 min 43 sec) 
Heartbeat CPU  0 instructions:   20000000 cycles:    8822297 heartbeat IPC: 2.26626 cumulative IPC: 2.26698 (Simulation time: 0 hr 0 min 45 sec) 
Heartbeat CPU  0 instructions:   21000000 cycles:    9263391 heartbeat IPC: 2.26709 cumulative IPC: 2.26699 (Simulation time: 0 hr 0 min 47 sec) 
Heartbeat CPU  0 instructions:   22000003 cycles:    9704351 heartbeat IPC: 2.26779 cumulative IPC: 2.26702 (Simulation time: 0 hr 0 min 50 sec) 
Heartbeat CPU  0 instructions:   23000001 cycles:   10145361 heartbeat IPC: 2.26752 cumulative IPC: 2.26705 (Simulation time: 0 hr 0 min 52 sec) 
Heartbeat CPU  0 instructions:   24000000 cycles:   10586453 heartbeat IPC: 2.26710 cumulative IPC: 2.26705 (Simulation time: 0 hr 0 min 54 sec) 
Heartbeat CPU  0 instructions:   25000003 cycles:   11027546 heartbeat IPC: 2.26710 cumulative IPC: 2.26705 (Simulation time: 0 hr 0 min 57 sec) 
Heartbeat CPU  0 instructions:   26000001 cycles:   11468783 heartbeat IPC: 2.26635 cumulative IPC: 2.26702 (Simulation time: 0 hr 0 min 59 sec) 
Heartbeat CPU  0 instructions:   27000000 cycles:   11909893 heartbeat IPC: 2.26701 cumulative IPC: 2.26702 (Simulation time: 0 hr 1 min 1 sec) 
Heartbeat CPU  0 instructions:   28000000 cycles:   12350988 heartbeat IPC: 2.26709 cumulative IPC: 2.26703 (Simulation time: 0 hr 1 min 4 sec) 
Heartbeat CPU  0 instructions:   29000003 cycles:   12792127 heartbeat IPC: 2.26687 cumulative IPC: 2.26702 (Simulation time: 0 hr 1 min 6 sec) 
Heartbeat CPU  0 instructions:   30000002 cycles:   13233221 heartbeat IPC: 2.26709 cumulative IPC: 2.26702 (Simulation time: 0 hr 1 min 8 sec) 
Heartbeat CPU  0 instructions:   31000003 cycles:   13674258 heartbeat IPC: 2.26739 cumulative IPC: 2.26703 (Simulation time: 0 hr 1 min 10 sec) 
Heartbeat CPU  0 instructions:   32000000 cycles:   14115361 heartbeat IPC: 2.26704 cumulative IPC: 2.26703 (Simulation time: 0 hr 1 min 13 sec) 
Heartbeat CPU  0 instructions:   33000002 cycles:   14556450 heartbeat IPC: 2.26712 cumulative IPC: 2.26704 (Simulation time: 0 hr 1 min 15 sec) 
Heartbeat CPU  0 instructions:   34000001 cycles:   14997756 heartbeat IPC: 2.26600 cumulative IPC: 2.26701 (Simulation time: 0 hr 1 min 17 sec) 
Heartbeat CPU  0 instructions:   35000000 cycles:   15438881 heartbeat IPC: 2.26693 cumulative IPC: 2.26700 (Simulation time: 0 hr 1 min 20 sec) 
Heartbeat CPU  0 instructions:   36000000 cycles:   15879997 heartbeat IPC: 2.26698 cumulative IPC: 2.26700 (Simulation time: 0 hr 1 min 22 sec) 
Heartbeat CPU  0 instructions:   37000003 cycles:   16321033 heartbeat IPC: 2.26740 cumulative IPC: 2.26701 (Simulation time: 0 hr 1 min 24 sec) 
Heartbeat CPU  0 instructions:   38000003 cycles:   16762093 heartbeat IPC: 2.26727 cumulative IPC: 2.26702 (Simulation time: 0 hr 1 min 26 sec) 
Heartbeat CPU  0 instructions:   39000002 cycles:   17203075 heartbeat IPC: 2.26766 cumulative IPC: 2.26704 (Simulation time: 0 hr 1 min 29 sec) 
Heartbeat CPU  0 instructions:   40000000 cycles:   17644088 heartbeat IPC: 2.26750 cumulative IPC: 2.26705 (Simulation time: 0 hr 1 min 31 sec) 
Heartbeat CPU  0 instructions:   41000001 cycles:   18085467 heartbeat IPC: 2.26563 cumulative IPC: 2.26701 (Simulation time: 0 hr 1 min 33 sec) 
Heartbeat CPU  0 instructions:   42000000 cycles:   18526692 heartbeat IPC: 2.26642 cumulative IPC: 2.26700 (Simulation time: 0 hr 1 min 35 sec) 
Heartbeat CPU  0 instructions:   43000003 cycles:   18967813 heartbeat IPC: 2.26696 cumulative IPC: 2.26700 (Simulation time: 0 hr 1 min 38 sec) 
Heartbeat CPU  0 instructions:   44000000 cycles:   19408828 heartbeat IPC: 2.26749 cumulative IPC: 2.26701 (Simulation time: 0 hr 1 min 40 sec) 
Heartbeat CPU  0 instructions:   45000002 cycles:   19849886 heartbeat IPC: 2.26728 cumulative IPC: 2.26702 (Simulation time: 0 hr 1 min 42 sec) 
Heartbeat CPU  0 instructions:   46000003 cycles:   20290908 heartbeat IPC: 2.26746 cumulative IPC: 2.26703 (Simulation time: 0 hr 1 min 45 sec) 
Heartbeat CPU  0 instructions:   47000001 cycles:   20731902 heartbeat IPC: 2.26760 cumulative IPC: 2.26704 (Simulation time: 0 hr 1 min 47 sec) 
Heartbeat CPU  0 instructions:   48000000 cycles:   21173020 heartbeat IPC: 2.26696 cumulative IPC: 2.26704 (Simulation time: 0 hr 1 min 49 sec) 
Heartbeat CPU  0 instructions:   49000001 cycles:   21614223 heartbeat IPC: 2.26653 cumulative IPC: 2.26703 (Simulation time: 0 hr 1 min 51 sec) 
Heartbeat CPU  0 instructions:   50000003 cycles:   22055403 heartbeat IPC: 2.26665 cumulative IPC: 2.26702 (Simulation time: 0 hr 1 min 54 sec) 
Heartbeat CPU  0 instructions:   51000002 cycles:   22496394 heartbeat IPC: 2.26762 cumulative IPC: 2.26703 (Simulation time: 0 hr 1 min 56 sec) 
Heartbeat CPU  0 instructions:   52000000 cycles:   22937589 heartbeat IPC: 2.26657 cumulative IPC: 2.26702 (Simulation time: 0 hr 1 min 58 sec) 
Heartbeat CPU  0 instructions:   53000001 cycles:   23378599 heartbeat IPC: 2.26752 cumulative IPC: 2.26703 (Simulation time: 0 hr 2 min 0 sec) 
Heartbeat CPU  0 instructions:   54000002 cycles:   23819624 heartbeat IPC: 2.26745 cumulative IPC: 2.26704 (Simulation time: 0 hr 2 min 3 sec) 
Heartbeat CPU  0 instructions:   55000002 cycles:   24260701 heartbeat IPC: 2.26718 cumulative IPC: 2.26704 (Simulation time: 0 hr 2 min 5 sec) 
Heartbeat CPU  0 instructions:   56000000 cycles:   24701965 heartbeat IPC: 2.26621 cumulative IPC: 2.26703 (Simulation time: 0 hr 2 min 7 sec) 
Heartbeat CPU  0 instructions:   57000000 cycles:   25143260 heartbeat IPC: 2.26606 cumulative IPC: 2.26701 (Simulation time: 0 hr 2 min 10 sec) 
Heartbeat CPU  0 instructions:   58000003 cycles:   25584283 heartbeat IPC: 2.26746 cumulative IPC: 2.26702 (Simulation time: 0 hr 2 min 12 sec) 
Heartbeat CPU  0 instructions:   59000001 cycles:   26025490 heartbeat IPC: 2.26651 cumulative IPC: 2.26701 (Simulation time: 0 hr 2 min 14 sec) 
Heartbeat CPU  0 instructions:   60000000 cycles:   26466379 heartbeat IPC: 2.26814 cumulative IPC: 2.26703 (Simulation time: 0 hr 2 min 16 sec) 
Heartbeat CPU  0 instructions:   61000001 cycles:   26907505 heartbeat IPC: 2.26693 cumulative IPC: 2.26703 (Simulation time: 0 hr 2 min 19 sec) 
Heartbeat CPU  0 instructions:   62000001 cycles:   27348525 heartbeat IPC: 2.26747 cumulative IPC: 2.26703 (Simulation time: 0 hr 2 min 21 sec) 
Heartbeat CPU  0 instructions:   63000002 cycles:   27789685 heartbeat IPC: 2.26675 cumulative IPC: 2.26703 (Simulation time: 0 hr 2 min 23 sec) 
Heartbeat CPU  0 instructions:   64000000 cycles:   28230877 heartbeat IPC: 2.26658 cumulative IPC: 2.26702 (Simulation time: 0 hr 2 min 25 sec) 
Heartbeat CPU  0 instructions:   65000003 cycles:   28672022 heartbeat IPC: 2.26684 cumulative IPC: 2.26702 (Simulation time: 0 hr 2 min 28 sec) 
Heartbeat CPU  0 instructions:   66000002 cycles:   29112969 heartbeat IPC: 2.26784 cumulative IPC: 2.26703 (Simulation time: 0 hr 2 min 30 sec) 
Heartbeat CPU  0 instructions:   67000001 cycles:   29553972 heartbeat IPC: 2.26756 cumulative IPC: 2.26704 (Simulation time: 0 hr 2 min 32 sec) 
Heartbeat CPU  0 instructions:   68000000 cycles:   29995009 heartbeat IPC: 2.26738 cumulative IPC: 2.26704 (Simulation time: 0 hr 2 min 35 sec) 
Heartbeat CPU  0 instructions:   69000000 cycles:   30435985 heartbeat IPC: 2.26770 cumulative IPC: 2.26705 (Simulation time: 0 hr 2 min 37 sec) 
Heartbeat CPU  0 instructions:   70000001 cycles:   30877047 heartbeat IPC: 2.26726 cumulative IPC: 2.26706 (Simulation time: 0 hr 2 min 39 sec) 
Heartbeat CPU  0 instructions:   71000000 cycles:   31318269 heartbeat IPC: 2.26643 cumulative IPC: 2.26705 (Simulation time: 0 hr 2 min 41 sec) 
Heartbeat CPU  0 instructions:   72000000 cycles:   31759493 heartbeat IPC: 2.26642 cumulative IPC: 2.26704 (Simulation time: 0 hr 2 min 44 sec) 
Heartbeat CPU  0 instructions:   73000003 cycles:   32200519 heartbeat IPC: 2.26745 cumulative IPC: 2.26704 (Simulation time: 0 hr 2 min 46 sec) 
Heartbeat CPU  0 instructions:   74000001 cycles:   32641590 heartbeat IPC: 2.26720 cumulative IPC: 2.26705 (Simulation time: 0 hr 2 min 48 sec) 
Heartbeat CPU  0 instructions:   75000000 cycles:   33082628 heartbeat IPC: 2.26738 cumulative IPC: 2.26705 (Simulation time: 0 hr 2 min 50 sec) 
Heartbeat CPU  0 instructions:   76000000 cycles:   33523592 heartbeat IPC: 2.26776 cumulative IPC: 2.26706 (Simulation time: 0 hr 2 min 53 sec) 
Heartbeat CPU  0 instructions:   77000003 cycles:   33964627 heartbeat IPC: 2.26740 cumulative IPC: 2.26706 (Simulation time: 0 hr 2 min 55 sec) 
Heartbeat CPU  0 instructions:   78000002 cycles:   34405823 heartbeat IPC: 2.26656 cumulative IPC: 2.26706 (Simulation time: 0 hr 2 min 57 sec) 
Heartbeat CPU  0 instructions:   79000003 cycles:   34847018 heartbeat IPC: 2.26657 cumulative IPC: 2.26705 (Simulation time: 0 hr 3 min 0 sec) 
Heartbeat CPU  0 instructions:   80000000 cycles:   35288057 heartbeat IPC: 2.26737 cumulative IPC: 2.26706 (Simulation time: 0 hr 3 min 2 sec) 
Heartbeat CPU  0 instructions:   81000002 cycles:   35729342 heartbeat IPC: 2.26611 cumulative IPC: 2.26704 (Simulation time: 0 hr 3 min 4 sec) 
Heartbeat CPU  0 instructions:   82000001 cycles:   36170304 heartbeat IPC: 2.26777 cumulative IPC: 2.26705 (Simulation time: 0 hr 3 min 6 sec) 
Heartbeat CPU  0 instructions:   83000003 cycles:   36611293 heartbeat IPC: 2.26763 cumulative IPC: 2.26706 (Simulation time: 0 hr 3 min 9 sec) 
Heartbeat CPU  0 instructions:   84000000 cycles:   37052299 heartbeat IPC: 2.26754 cumulative IPC: 2.26707 (Simulation time: 0 hr 3 min 11 sec) 
Heartbeat CPU  0 instructions:   85000003 cycles:   37493487 heartbeat IPC: 2.26661 cumulative IPC: 2.26706 (Simulation time: 0 hr 3 min 13 sec) 
Heartbeat CPU  0 instructions:   86000003 cycles:   37934733 heartbeat IPC: 2.26631 cumulative IPC: 2.26705 (Simulation time: 0 hr 3 min 16 sec) 
Heartbeat CPU  0 instructions:   87000003 cycles:   38375855 heartbeat IPC: 2.26695 cumulative IPC: 2.26705 (Simulation time: 0 hr 3 min 18 sec) 
Heartbeat CPU  0 instructions:   88000000 cycles:   38816891 heartbeat IPC: 2.26738 cumulative IPC: 2.26705 (Simulation time: 0 hr 3 min 20 sec) 
Heartbeat CPU  0 instructions:   89000001 cycles:   39257961 heartbeat IPC: 2.26722 cumulative IPC: 2.26706 (Simulation time: 0 hr 3 min 22 sec) 
Heartbeat CPU  0 instructions:   90000000 cycles:   39699097 heartbeat IPC: 2.26687 cumulative IPC: 2.26705 (Simulation time: 0 hr 3 min 25 sec) 
Heartbeat CPU  0 instructions:   91000001 cycles:   40140066 heartbeat IPC: 2.26774 cumulative IPC: 2.26706 (Simulation time: 0 hr 3 min 27 sec) 
Heartbeat CPU  0 instructions:   92000000 cycles:   40581166 heartbeat IPC: 2.26706 cumulative IPC: 2.26706 (Simulation time: 0 hr 3 min 29 sec) 
Heartbeat CPU  0 instructions:   93000002 cycles:   41022340 heartbeat IPC: 2.26668 cumulative IPC: 2.26706 (Simulation time: 0 hr 3 min 32 sec) 
Heartbeat CPU  0 instructions:   94000003 cycles:   41463540 heartbeat IPC: 2.26655 cumulative IPC: 2.26705 (Simulation time: 0 hr 3 min 34 sec) 
Heartbeat CPU  0 instructions:   95000002 cycles:   41904635 heartbeat IPC: 2.26708 cumulative IPC: 2.26705 (Simulation time: 0 hr 3 min 36 sec) 
Heartbeat CPU  0 instructions:   96000000 cycles:   42345616 heartbeat IPC: 2.26767 cumulative IPC: 2.26706 (Simulation time: 0 hr 3 min 38 sec) 
Heartbeat CPU  0 instructions:   97000001 cycles:   42786702 heartbeat IPC: 2.26713 cumulative IPC: 2.26706 (Simulation time: 0 hr 3 min 41 sec) 
Heartbeat CPU  0 instructions:   98000003 cycles:   43227738 heartbeat IPC: 2.26739 cumulative IPC: 2.26706 (Simulation time: 0 hr 3 min 43 sec) 
Heartbeat CPU  0 instructions:   99000002 cycles:   43668773 heartbeat IPC: 2.26739 cumulative IPC: 2.26707 (Simulation time: 0 hr 3 min 45 sec) 
Heartbeat CPU  0 instructions:  100000000 cycles:   44109927 heartbeat IPC: 2.26678 cumulative IPC: 2.26706 (Simulation time: 0 hr 3 min 48 sec) 

Warmup complete CPU  0 instructions:  100000004 cycles:   44109931 (Simulation time: 0 hr 3 min 48 sec) 

Heartbeat CPU  0 instructions:  101000001 cycles:   45091665 heartbeat IPC: 1.01860 cumulative IPC: 1.01860 (Simulation time: 0 hr 3 min 51 sec) 
Heartbeat CPU  0 instructions:  102000000 cycles:   46075313 heartbeat IPC: 1.01662 cumulative IPC: 1.01761 (Simulation time: 0 hr 3 min 54 sec) 
Heartbeat CPU  0 instructions:  103000003 cycles:   47065116 heartbeat IPC: 1.01031 cumulative IPC: 1.01516 (Simulation time: 0 hr 3 min 57 sec) 
Heartbeat CPU  0 instructions:  104000000 cycles:   48040408 heartbeat IPC: 1.02533 cumulative IPC: 1.01769 (Simulation time: 0 hr 4 min 0 sec) 
Heartbeat CPU  0 instructions:  105000002 cycles:   49027543 heartbeat IPC: 1.01303 cumulative IPC: 1.01675 (Simulation time: 0 hr 4 min 3 sec) 
Heartbeat CPU  0 instructions:  106000000 cycles:   50003884 heartbeat IPC: 1.02423 cumulative IPC: 1.01799 (Simulation time: 0 hr 4 min 6 sec) 
Heartbeat CPU  0 instructions:  107000001 cycles:   50993433 heartbeat IPC: 1.01056 cumulative IPC: 1.01692 (Simulation time: 0 hr 4 min 9 sec) 
Heartbeat CPU  0 instructions:  108000000 cycles:   51974142 heartbeat IPC: 1.01967 cumulative IPC: 1.01727 (Simulation time: 0 hr 4 min 12 sec) 
Heartbeat CPU  0 instructions:  109000000 cycles:   52942545 heartbeat IPC: 1.03263 cumulative IPC: 1.01895 (Simulation time: 0 hr 4 min 15 sec) 
Heartbeat CPU  0 instructions:  110000001 cycles:   53938515 heartbeat IPC: 1.00405 cumulative IPC: 1.01744 (Simulation time: 0 hr 4 min 19 sec) 
Heartbeat CPU  0 instructions:  111000000 cycles:   54920238 heartbeat IPC: 1.01862 cumulative IPC: 1.01755 (Simulation time: 0 hr 4 min 22 sec) 
Heartbeat CPU  0 instructions:  112000000 cycles:   55891550 heartbeat IPC: 1.02954 cumulative IPC: 1.01854 (Simulation time: 0 hr 4 min 25 sec) 
Heartbeat CPU  0 instructions:  113000003 cycles:   56868607 heartbeat IPC: 1.02348 cumulative IPC: 1.01891 (Simulation time: 0 hr 4 min 28 sec) 
Heartbeat CPU  0 instructions:  114000002 cycles:   57828925 heartbeat IPC: 1.04132 cumulative IPC: 1.02048 (Simulation time: 0 hr 4 min 31 sec) 
Heartbeat CPU  0 instructions:  115000000 cycles:   58791565 heartbeat IPC: 1.03881 cumulative IPC: 1.02168 (Simulation time: 0 hr 4 min 34 sec) 
Heartbeat CPU  0 instructions:  116000000 cycles:   59750959 heartbeat IPC: 1.04232 cumulative IPC: 1.02295 (Simulation time: 0 hr 4 min 37 sec) 
Heartbeat CPU  0 instructions:  117000002 cycles:   60739728 heartbeat IPC: 1.01136 cumulative IPC: 1.02226 (Simulation time: 0 hr 4 min 40 sec) 
Heartbeat CPU  0 instructions:  118000002 cycles:   61714046 heartbeat IPC: 1.02636 cumulative IPC: 1.02249 (Simulation time: 0 hr 4 min 43 sec) 
Heartbeat CPU  0 instructions:  119000003 cycles:   62710605 heartbeat IPC: 1.00345 cumulative IPC: 1.02147 (Simulation time: 0 hr 4 min 46 sec) 
Heartbeat CPU  0 instructions:  120000000 cycles:   63691267 heartbeat IPC: 1.01972 cumulative IPC: 1.02138 (Simulation time: 0 hr 4 min 50 sec) 
Heartbeat CPU  0 instructions:  121000002 cycles:   64674110 heartbeat IPC: 1.01746 cumulative IPC: 1.02119 (Simulation time: 0 hr 4 min 53 sec) 
Heartbeat CPU  0 instructions:  122000003 cycles:   65660618 heartbeat IPC: 1.01368 cumulative IPC: 1.02085 (Simulation time: 0 hr 4 min 56 sec) 
Heartbeat CPU  0 instructions:  123000002 cycles:   66642445 heartbeat IPC: 1.01851 cumulative IPC: 1.02075 (Simulation time: 0 hr 4 min 59 sec) 
Heartbeat CPU  0 instructions:  124000000 cycles:   67642687 heartbeat IPC: 0.99976 cumulative IPC: 1.01985 (Simulation time: 0 hr 5 min 2 sec) 
Heartbeat CPU  0 instructions:  125000001 cycles:   68638486 heartbeat IPC: 1.00422 cumulative IPC: 1.01922 (Simulation time: 0 hr 5 min 5 sec) 
Heartbeat CPU  0 instructions:  126000000 cycles:   69629689 heartbeat IPC: 1.00887 cumulative IPC: 1.01882 (Simulation time: 0 hr 5 min 8 sec) 
Heartbeat CPU  0 instructions:  127000000 cycles:   70612395 heartbeat IPC: 1.01760 cumulative IPC: 1.01877 (Simulation time: 0 hr 5 min 12 sec) 
Heartbeat CPU  0 instructions:  128000000 cycles:   71604570 heartbeat IPC: 1.00789 cumulative IPC: 1.01838 (Simulation time: 0 hr 5 min 15 sec) 
Heartbeat CPU  0 instructions:  129000002 cycles:   72581799 heartbeat IPC: 1.02330 cumulative IPC: 1.01855 (Simulation time: 0 hr 5 min 18 sec) 
Heartbeat CPU  0 instructions:  130000000 cycles:   73581006 heartbeat IPC: 1.00079 cumulative IPC: 1.01795 (Simulation time: 0 hr 5 min 21 sec) 
Heartbeat CPU  0 instructions:  131000001 cycles:   74569696 heartbeat IPC: 1.01144 cumulative IPC: 1.01774 (Simulation time: 0 hr 5 min 24 sec) 
Heartbeat CPU  0 instructions:  132000000 cycles:   75551920 heartbeat IPC: 1.01810 cumulative IPC: 1.01775 (Simulation time: 0 hr 5 min 27 sec) 
Heartbeat CPU  0 instructions:  133000002 cycles:   76526962 heartbeat IPC: 1.02560 cumulative IPC: 1.01798 (Simulation time: 0 hr 5 min 30 sec) 
Heartbeat CPU  0 instructions:  134000003 cycles:   77516435 heartbeat IPC: 1.01064 cumulative IPC: 1.01777 (Simulation time: 0 hr 5 min 33 sec) 
Heartbeat CPU  0 instructions:  135000002 cycles:   78489427 heartbeat IPC: 1.02776 cumulative IPC: 1.01805 (Simulation time: 0 hr 5 min 36 sec) 
Heartbeat CPU  0 instructions:  136000000 cycles:   79456777 heartbeat IPC: 1.03375 cumulative IPC: 1.01848 (Simulation time: 0 hr 5 min 39 sec) 
Heartbeat CPU  0 instructions:  137000003 cycles:   80433462 heartbeat IPC: 1.02387 cumulative IPC: 1.01862 (Simulation time: 0 hr 5 min 43 sec) 
Heartbeat CPU  0 instructions:  138000000 cycles:   81407079 heartbeat IPC: 1.02709 cumulative IPC: 1.01884 (Simulation time: 0 hr 5 min 46 sec) 
Heartbeat CPU  0 instructions:  139000000 cycles:   82363464 heartbeat IPC: 1.04560 cumulative IPC: 1.01951 (Simulation time: 0 hr 5 min 49 sec) 
Heartbeat CPU  0 instructions:  140000000 cycles:   83323390 heartbeat IPC: 1.04175 cumulative IPC: 1.02006 (Simulation time: 0 hr 5 min 52 sec) 
Heartbeat CPU  0 instructions:  141000002 cycles:   84301130 heartbeat IPC: 1.02277 cumulative IPC: 1.02012 (Simulation time: 0 hr 5 min 55 sec) 
Heartbeat CPU  0 instructions:  142000000 cycles:   85280805 heartbeat IPC: 1.02074 cumulative IPC: 1.02014 (Simulation time: 0 hr 5 min 58 sec) 
Heartbeat CPU  0 instructions:  143000001 cycles:   86247928 heartbeat IPC: 1.03400 cumulative IPC: 1.02046 (Simulation time: 0 hr 6 min 1 sec) 
Heartbeat CPU  0 instructions:  144000000 cycles:   87224944 heartbeat IPC: 1.02352 cumulative IPC: 1.02053 (Simulation time: 0 hr 6 min 4 sec) 
Heartbeat CPU  0 instructions:  145000000 cycles:   88223831 heartbeat IPC: 1.00111 cumulative IPC: 1.02009 (Simulation time: 0 hr 6 min 7 sec) 
Heartbeat CPU  0 instructions:  146000001 cycles:   89220180 heartbeat IPC: 1.00367 cumulative IPC: 1.01972 (Simulation time: 0 hr 6 min 11 sec) 
Heartbeat CPU  0 instructions:  147000000 cycles:   90190690 heartbeat IPC: 1.03039 cumulative IPC: 1.01995 (Simulation time: 0 hr 6 min 14 sec) 
Heartbeat CPU  0 instructions:  148000000 cycles:   91181632 heartbeat IPC: 1.00914 cumulative IPC: 1.01972 (Simulation time: 0 hr 6 min 17 sec) 
Heartbeat CPU  0 instructions:  149000001 cycles:   92166799 heartbeat IPC: 1.01506 cumulative IPC: 1.01963 (Simulation time: 0 hr 6 min 20 sec) 
Heartbeat CPU  0 instructions:  150000000 cycles:   93150093 heartbeat IPC: 1.01699 cumulative IPC: 1.01957 (Simulation time: 0 hr 6 min 23 sec) 
Heartbeat CPU  0 instructions:  151000000 cycles:   94136112 heartbeat IPC: 1.01418 cumulative IPC: 1.01947 (Simulation time: 0 hr 6 min 26 sec) 
Heartbeat CPU  0 instructions:  152000000 cycles:   95112248 heartbeat IPC: 1.02445 cumulative IPC: 1.01956 (Simulation time: 0 hr 6 min 29 sec) 
Heartbeat CPU  0 instructions:  153000000 cycles:   96089055 heartbeat IPC: 1.02374 cumulative IPC: 1.01964 (Simulation time: 0 hr 6 min 32 sec) 
Heartbeat CPU  0 instructions:  154000000 cycles:   97051661 heartbeat IPC: 1.03885 cumulative IPC: 1.01999 (Simulation time: 0 hr 6 min 35 sec) 
Heartbeat CPU  0 instructions:  155000003 cycles:   98052150 heartbeat IPC: 0.99951 cumulative IPC: 1.01961 (Simulation time: 0 hr 6 min 39 sec) 
Heartbeat CPU  0 instructions:  156000000 cycles:   99024375 heartbeat IPC: 1.02857 cumulative IPC: 1.01977 (Simulation time: 0 hr 6 min 42 sec) 
Heartbeat CPU  0 instructions:  157000002 cycles:  100025051 heartbeat IPC: 0.99933 cumulative IPC: 1.01940 (Simulation time: 0 hr 6 min 45 sec) 
Heartbeat CPU  0 instructions:  158000001 cycles:  100991679 heartbeat IPC: 1.03452 cumulative IPC: 1.01966 (Simulation time: 0 hr 6 min 48 sec) 
Heartbeat CPU  0 instructions:  159000000 cycles:  101959508 heartbeat IPC: 1.03324 cumulative IPC: 1.01989 (Simulation time: 0 hr 6 min 51 sec) 
Heartbeat CPU  0 instructions:  160000000 cycles:  102921777 heartbeat IPC: 1.03921 cumulative IPC: 1.02020 (Simulation time: 0 hr 6 min 54 sec) 
Heartbeat CPU  0 instructions:  161000003 cycles:  103905355 heartbeat IPC: 1.01670 cumulative IPC: 1.02014 (Simulation time: 0 hr 6 min 57 sec) 
Heartbeat CPU  0 instructions:  162000002 cycles:  104880465 heartbeat IPC: 1.02552 cumulative IPC: 1.02023 (Simulation time: 0 hr 7 min 0 sec) 
Heartbeat CPU  0 instructions:  163000000 cycles:  105845530 heartbeat IPC: 1.03620 cumulative IPC: 1.02048 (Simulation time: 0 hr 7 min 3 sec) 
Heartbeat CPU  0 instructions:  164000000 cycles:  106853518 heartbeat IPC: 0.99208 cumulative IPC: 1.02002 (Simulation time: 0 hr 7 min 6 sec) 
Heartbeat CPU  0 instructions:  165000002 cycles:  107847255 heartbeat IPC: 1.00630 cumulative IPC: 1.01981 (Simulation time: 0 hr 7 min 9 sec) 
Heartbeat CPU  0 instructions:  166000000 cycles:  108857900 heartbeat IPC: 0.98947 cumulative IPC: 1.01934 (Simulation time: 0 hr 7 min 12 sec) 
Heartbeat CPU  0 instructions:  167000003 cycles:  109843722 heartbeat IPC: 1.01438 cumulative IPC: 1.01926 (Simulation time: 0 hr 7 min 16 sec) 
Heartbeat CPU  0 instructions:  168000000 cycles:  110829826 heartbeat IPC: 1.01409 cumulative IPC: 1.01919 (Simulation time: 0 hr 7 min 19 sec) 
Heartbeat CPU  0 instructions:  169000000 cycles:  111801650 heartbeat IPC: 1.02899 cumulative IPC: 1.01933 (Simulation time: 0 hr 7 min 22 sec) 
Heartbeat CPU  0 instructions:  170000003 cycles:  112797263 heartbeat IPC: 1.00441 cumulative IPC: 1.01911 (Simulation time: 0 hr 7 min 25 sec) 
Heartbeat CPU  0 instructions:  171000002 cycles:  113780847 heartbeat IPC: 1.01669 cumulative IPC: 1.01908 (Simulation time: 0 hr 7 min 28 sec) 
Heartbeat CPU  0 instructions:  172000000 cycles:  114770830 heartbeat IPC: 1.01012 cumulative IPC: 1.01895 (Simulation time: 0 hr 7 min 31 sec) 
Heartbeat CPU  0 instructions:  173000001 cycles:  115763413 heartbeat IPC: 1.00747 cumulative IPC: 1.01879 (Simulation time: 0 hr 7 min 34 sec) 
Heartbeat CPU  0 instructions:  174000002 cycles:  116756833 heartbeat IPC: 1.00662 cumulative IPC: 1.01863 (Simulation time: 0 hr 7 min 37 sec) 
Heartbeat CPU  0 instructions:  175000002 cycles:  117732574 heartbeat IPC: 1.02486 cumulative IPC: 1.01871 (Simulation time: 0 hr 7 min 40 sec) 
Heartbeat CPU  0 instructions:  176000000 cycles:  118708164 heartbeat IPC: 1.02502 cumulative IPC: 1.01879 (Simulation time: 0 hr 7 min 43 sec) 
Heartbeat CPU  0 instructions:  177000002 cycles:  119681029 heartbeat IPC: 1.02789 cumulative IPC: 1.01891 (Simulation time: 0 hr 7 min 46 sec) 
Heartbeat CPU  0 instructions:  178000002 cycles:  120656422 heartbeat IPC: 1.02523 cumulative IPC: 1.01899 (Simulation time: 0 hr 7 min 49 sec) 
Heartbeat CPU  0 instructions:  179000001 cycles:  121629444 heartbeat IPC: 1.02772 cumulative IPC: 1.01910 (Simulation time: 0 hr 7 min 52 sec) 
Heartbeat CPU  0 instructions:  180000000 cycles:  122597900 heartbeat IPC: 1.03257 cumulative IPC: 1.01926 (Simulation time: 0 hr 7 min 56 sec) 
Heartbeat CPU  0 instructions:  181000000 cycles:  123564809 heartbeat IPC: 1.03422 cumulative IPC: 1.01945 (Simulation time: 0 hr 7 min 59 sec) 
Heartbeat CPU  0 instructions:  182000003 cycles:  124527674 heartbeat IPC: 1.03857 cumulative IPC: 1.01968 (Simulation time: 0 hr 8 min 2 sec) 
Heartbeat CPU  0 instructions:  183000002 cycles:  125510145 heartbeat IPC: 1.01784 cumulative IPC: 1.01965 (Simulation time: 0 hr 8 min 5 sec) 
Heartbeat CPU  0 instructions:  184000000 cycles:  126475281 heartbeat IPC: 1.03612 cumulative IPC: 1.01985 (Simulation time: 0 hr 8 min 8 sec) 
Heartbeat CPU  0 instructions:  185000003 cycles:  127460907 heartbeat IPC: 1.01459 cumulative IPC: 1.01978 (Simulation time: 0 hr 8 min 11 sec) 
Heartbeat CPU  0 instructions:  186000002 cycles:  128447542 heartbeat IPC: 1.01355 cumulative IPC: 1.01971 (Simulation time: 0 hr 8 min 14 sec) 
Heartbeat CPU  0 instructions:  187000000 cycles:  129436262 heartbeat IPC: 1.01141 cumulative IPC: 1.01961 (Simulation time: 0 hr 8 min 17 sec) 
Heartbeat CPU  0 instructions:  188000000 cycles:  130420679 heartbeat IPC: 1.01583 cumulative IPC: 1.01957 (Simulation time: 0 hr 8 min 20 sec) 
Heartbeat CPU  0 instructions:  189000001 cycles:  131403712 heartbeat IPC: 1.01726 cumulative IPC: 1.01955 (Simulation time: 0 hr 8 min 23 sec) 
Heartbeat CPU  0 instructions:  190000002 cycles:  132386420 heartbeat IPC: 1.01760 cumulative IPC: 1.01952 (Simulation time: 0 hr 8 min 26 sec) 
Heartbeat CPU  0 instructions:  191000001 cycles:  133383413 heartbeat IPC: 1.00302 cumulative IPC: 1.01934 (Simulation time: 0 hr 8 min 29 sec) 
Heartbeat CPU  0 instructions:  192000000 cycles:  134374551 heartbeat IPC: 1.00894 cumulative IPC: 1.01923 (Simulation time: 0 hr 8 min 33 sec) 
Heartbeat CPU  0 instructions:  193000000 cycles:  135369438 heartbeat IPC: 1.00514 cumulative IPC: 1.01907 (Simulation time: 0 hr 8 min 36 sec) 
Heartbeat CPU  0 instructions:  194000001 cycles:  136356722 heartbeat IPC: 1.01288 cumulative IPC: 1.01901 (Simulation time: 0 hr 8 min 39 sec) 
Heartbeat CPU  0 instructions:  195000003 cycles:  137350688 heartbeat IPC: 1.00607 cumulative IPC: 1.01887 (Simulation time: 0 hr 8 min 42 sec) 
Heartbeat CPU  0 instructions:  196000000 cycles:  138329105 heartbeat IPC: 1.02206 cumulative IPC: 1.01890 (Simulation time: 0 hr 8 min 45 sec) 
Heartbeat CPU  0 instructions:  197000001 cycles:  139324364 heartbeat IPC: 1.00476 cumulative IPC: 1.01875 (Simulation time: 0 hr 8 min 48 sec) 
Heartbeat CPU  0 instructions:  198000003 cycles:  140292105 heartbeat IPC: 1.03334 cumulative IPC: 1.01890 (Simulation time: 0 hr 8 min 51 sec) 
Heartbeat CPU  0 instructions:  199000000 cycles:  141289243 heartbeat IPC: 1.00287 cumulative IPC: 1.01874 (Simulation time: 0 hr 8 min 54 sec) 
Heartbeat CPU  0 instructions:  200000000 cycles:  142251889 heartbeat IPC: 1.03880 cumulative IPC: 1.01893 (Simulation time: 0 hr 8 min 58 sec) 
Heartbeat CPU  0 instructions:  201000003 cycles:  143226590 heartbeat IPC: 1.02596 cumulative IPC: 1.01900 (Simulation time: 0 hr 9 min 1 sec) 
Heartbeat CPU  0 instructions:  202000002 cycles:  144186625 heartbeat IPC: 1.04163 cumulative IPC: 1.01922 (Simulation time: 0 hr 9 min 4 sec) 
Heartbeat CPU  0 instructions:  203000003 cycles:  145168108 heartbeat IPC: 1.01887 cumulative IPC: 1.01921 (Simulation time: 0 hr 9 min 7 sec) 
Heartbeat CPU  0 instructions:  204000000 cycles:  146130383 heartbeat IPC: 1.03920 cumulative IPC: 1.01940 (Simulation time: 0 hr 9 min 10 sec) 
Heartbeat CPU  0 instructions:  205000002 cycles:  147110747 heartbeat IPC: 1.02003 cumulative IPC: 1.01941 (Simulation time: 0 hr 9 min 13 sec) 
Heartbeat CPU  0 instructions:  206000001 cycles:  148070190 heartbeat IPC: 1.04227 cumulative IPC: 1.01962 (Simulation time: 0 hr 9 min 16 sec) 
Heartbeat CPU  0 instructions:  207000003 cycles:  149064273 heartbeat IPC: 1.00595 cumulative IPC: 1.01949 (Simulation time: 0 hr 9 min 19 sec) 
Heartbeat CPU  0 instructions:  208000000 cycles:  150042322 heartbeat IPC: 1.02244 cumulative IPC: 1.01952 (Simulation time: 0 hr 9 min 22 sec) 
Heartbeat CPU  0 instructions:  209000003 cycles:  151041177 heartbeat IPC: 1.00115 cumulative IPC: 1.01935 (Simulation time: 0 hr 9 min 26 sec) 
Heartbeat CPU  0 instructions:  210000002 cycles:  152017230 heartbeat IPC: 1.02453 cumulative IPC: 1.01939 (Simulation time: 0 hr 9 min 29 sec) 
Heartbeat CPU  0 instructions:  211000002 cycles:  153013112 heartbeat IPC: 1.00414 cumulative IPC: 1.01925 (Simulation time: 0 hr 9 min 32 sec) 
Heartbeat CPU  0 instructions:  212000000 cycles:  154008446 heartbeat IPC: 1.00469 cumulative IPC: 1.01912 (Simulation time: 0 hr 9 min 35 sec) 
Heartbeat CPU  0 instructions:  213000003 cycles:  155002673 heartbeat IPC: 1.00581 cumulative IPC: 1.01900 (Simulation time: 0 hr 9 min 38 sec) 
Heartbeat CPU  0 instructions:  214000002 cycles:  155989006 heartbeat IPC: 1.01386 cumulative IPC: 1.01896 (Simulation time: 0 hr 9 min 41 sec) 
Heartbeat CPU  0 instructions:  215000003 cycles:  156981800 heartbeat IPC: 1.00726 cumulative IPC: 1.01885 (Simulation time: 0 hr 9 min 45 sec) 
Heartbeat CPU  0 instructions:  216000000 cycles:  157964470 heartbeat IPC: 1.01763 cumulative IPC: 1.01884 (Simulation time: 0 hr 9 min 48 sec) 
Heartbeat CPU  0 instructions:  217000002 cycles:  158934018 heartbeat IPC: 1.03141 cumulative IPC: 1.01895 (Simulation time: 0 hr 9 min 51 sec) 
Heartbeat CPU  0 instructions:  218000000 cycles:  159919297 heartbeat IPC: 1.01494 cumulative IPC: 1.01892 (Simulation time: 0 hr 9 min 54 sec) 
Heartbeat CPU  0 instructions:  219000001 cycles:  160913014 heartbeat IPC: 1.00632 cumulative IPC: 1.01881 (Simulation time: 0 hr 9 min 57 sec) 
Heartbeat CPU  0 instructions:  220000000 cycles:  161880757 heartbeat IPC: 1.03333 cumulative IPC: 1.01893 (Simulation time: 0 hr 10 min 0 sec) 
Heartbeat CPU  0 instructions:  221000001 cycles:  162864714 heartbeat IPC: 1.01631 cumulative IPC: 1.01891 (Simulation time: 0 hr 10 min 4 sec) 
Heartbeat CPU  0 instructions:  222000001 cycles:  163824964 heartbeat IPC: 1.04140 cumulative IPC: 1.01909 (Simulation time: 0 hr 10 min 7 sec) 
Heartbeat CPU  0 instructions:  223000002 cycles:  164798874 heartbeat IPC: 1.02679 cumulative IPC: 1.01915 (Simulation time: 0 hr 10 min 10 sec) 
Heartbeat CPU  0 instructions:  224000000 cycles:  165753287 heartbeat IPC: 1.04776 cumulative IPC: 1.01937 (Simulation time: 0 hr 10 min 13 sec) 
Heartbeat CPU  0 instructions:  225000001 cycles:  166733922 heartbeat IPC: 1.01975 cumulative IPC: 1.01938 (Simulation time: 0 hr 10 min 16 sec) 
Heartbeat CPU  0 instructions:  226000000 cycles:  167704837 heartbeat IPC: 1.02996 cumulative IPC: 1.01946 (Simulation time: 0 hr 10 min 20 sec) 
Heartbeat CPU  0 instructions:  227000001 cycles:  168689668 heartbeat IPC: 1.01540 cumulative IPC: 1.01943 (Simulation time: 0 hr 10 min 23 sec) 
Heartbeat CPU  0 instructions:  228000000 cycles:  169672345 heartbeat IPC: 1.01763 cumulative IPC: 1.01941 (Simulation time: 0 hr 10 min 26 sec) 
Heartbeat CPU  0 instructions:  229000002 cycles:  170645222 heartbeat IPC: 1.02788 cumulative IPC: 1.01948 (Simulation time: 0 hr 10 min 29 sec) 
Heartbeat CPU  0 instructions:  230000003 cycles:  171613597 heartbeat IPC: 1.03266 cumulative IPC: 1.01958 (Simulation time: 0 hr 10 min 33 sec) 
Heartbeat CPU  0 instructions:  231000001 cycles:  172596922 heartbeat IPC: 1.01696 cumulative IPC: 1.01956 (Simulation time: 0 hr 10 min 36 sec) 
Heartbeat CPU  0 instructions:  232000000 cycles:  173585876 heartbeat IPC: 1.01117 cumulative IPC: 1.01949 (Simulation time: 0 hr 10 min 39 sec) 
Heartbeat CPU  0 instructions:  233000001 cycles:  174582889 heartbeat IPC: 1.00300 cumulative IPC: 1.01937 (Simulation time: 0 hr 10 min 42 sec) 
Heartbeat CPU  0 instructions:  234000003 cycles:  175578838 heartbeat IPC: 1.00407 cumulative IPC: 1.01925 (Simulation time: 0 hr 10 min 45 sec) 
Heartbeat CPU  0 instructions:  235000000 cycles:  176554559 heartbeat IPC: 1.02488 cumulative IPC: 1.01929 (Simulation time: 0 hr 10 min 49 sec) 
Heartbeat CPU  0 instructions:  236000000 cycles:  177543386 heartbeat IPC: 1.01130 cumulative IPC: 1.01923 (Simulation time: 0 hr 10 min 52 sec) 
Heartbeat CPU  0 instructions:  237000002 cycles:  178531274 heartbeat IPC: 1.01226 cumulative IPC: 1.01918 (Simulation time: 0 hr 10 min 55 sec) 
Heartbeat CPU  0 instructions:  238000000 cycles:  179509848 heartbeat IPC: 1.02189 cumulative IPC: 1.01920 (Simulation time: 0 hr 10 min 58 sec) 
Heartbeat CPU  0 instructions:  239000001 cycles:  180488328 heartbeat IPC: 1.02199 cumulative IPC: 1.01922 (Simulation time: 0 hr 11 min 2 sec) 
Heartbeat CPU  0 instructions:  240000000 cycles:  181462428 heartbeat IPC: 1.02659 cumulative IPC: 1.01928 (Simulation time: 0 hr 11 min 5 sec) 
Heartbeat CPU  0 instructions:  241000000 cycles:  182441611 heartbeat IPC: 1.02126 cumulative IPC: 1.01929 (Simulation time: 0 hr 11 min 8 sec) 
Heartbeat CPU  0 instructions:  242000001 cycles:  183394863 heartbeat IPC: 1.04904 cumulative IPC: 1.01949 (Simulation time: 0 hr 11 min 11 sec) 
Heartbeat CPU  0 instructions:  243000003 cycles:  184381995 heartbeat IPC: 1.01304 cumulative IPC: 1.01945 (Simulation time: 0 hr 11 min 14 sec) 
Heartbeat CPU  0 instructions:  244000000 cycles:  185336327 heartbeat IPC: 1.04785 cumulative IPC: 1.01964 (Simulation time: 0 hr 11 min 17 sec) 
Heartbeat CPU  0 instructions:  245000001 cycles:  186317070 heartbeat IPC: 1.01964 cumulative IPC: 1.01964 (Simulation time: 0 hr 11 min 20 sec) 
Heartbeat CPU  0 instructions:  246000003 cycles:  187280660 heartbeat IPC: 1.03779 cumulative IPC: 1.01976 (Simulation time: 0 hr 11 min 24 sec) 
Heartbeat CPU  0 instructions:  247000000 cycles:  188249566 heartbeat IPC: 1.03209 cumulative IPC: 1.01984 (Simulation time: 0 hr 11 min 27 sec) 
Heartbeat CPU  0 instructions:  248000000 cycles:  189218297 heartbeat IPC: 1.03228 cumulative IPC: 1.01993 (Simulation time: 0 hr 11 min 31 sec) 
Heartbeat CPU  0 instructions:  249000003 cycles:  190214088 heartbeat IPC: 1.00423 cumulative IPC: 1.01982 (Simulation time: 0 hr 11 min 34 sec) 
Heartbeat CPU  0 instructions:  250000000 cycles:  191201497 heartbeat IPC: 1.01275 cumulative IPC: 1.01977 (Simulation time: 0 hr 11 min 37 sec) 
Heartbeat CPU  0 instructions:  251000003 cycles:  192184896 heartbeat IPC: 1.01688 cumulative IPC: 1.01975 (Simulation time: 0 hr 11 min 40 sec) 
Heartbeat CPU  0 instructions:  252000000 cycles:  193163572 heartbeat IPC: 1.02179 cumulative IPC: 1.01977 (Simulation time: 0 hr 11 min 44 sec) 
Heartbeat CPU  0 instructions:  253000002 cycles:  194147883 heartbeat IPC: 1.01594 cumulative IPC: 1.01974 (Simulation time: 0 hr 11 min 47 sec) 
Heartbeat CPU  0 instructions:  254000001 cycles:  195119334 heartbeat IPC: 1.02939 cumulative IPC: 1.01980 (Simulation time: 0 hr 11 min 50 sec) 
Heartbeat CPU  0 instructions:  255000001 cycles:  196108616 heartbeat IPC: 1.01083 cumulative IPC: 1.01975 (Simulation time: 0 hr 11 min 53 sec) 
Heartbeat CPU  0 instructions:  256000000 cycles:  197095983 heartbeat IPC: 1.01279 cumulative IPC: 1.01970 (Simulation time: 0 hr 11 min 56 sec) 
Heartbeat CPU  0 instructions:  257000003 cycles:  198086556 heartbeat IPC: 1.00952 cumulative IPC: 1.01964 (Simulation time: 0 hr 11 min 59 sec) 
Heartbeat CPU  0 instructions:  258000001 cycles:  199078868 heartbeat IPC: 1.00775 cumulative IPC: 1.01956 (Simulation time: 0 hr 12 min 2 sec) 
Heartbeat CPU  0 instructions:  259000002 cycles:  200067297 heartbeat IPC: 1.01171 cumulative IPC: 1.01951 (Simulation time: 0 hr 12 min 6 sec) 
Heartbeat CPU  0 instructions:  260000000 cycles:  201061846 heartbeat IPC: 1.00548 cumulative IPC: 1.01942 (Simulation time: 0 hr 12 min 9 sec) 
Heartbeat CPU  0 instructions:  261000001 cycles:  202049978 heartbeat IPC: 1.01201 cumulative IPC: 1.01937 (Simulation time: 0 hr 12 min 12 sec) 
Heartbeat CPU  0 instructions:  262000000 cycles:  203033123 heartbeat IPC: 1.01714 cumulative IPC: 1.01936 (Simulation time: 0 hr 12 min 15 sec) 
Heartbeat CPU  0 instructions:  263000001 cycles:  204004952 heartbeat IPC: 1.02899 cumulative IPC: 1.01942 (Simulation time: 0 hr 12 min 18 sec) 
Heartbeat CPU  0 instructions:  264000000 cycles:  204968305 heartbeat IPC: 1.03804 cumulative IPC: 1.01953 (Simulation time: 0 hr 12 min 21 sec) 
Heartbeat CPU  0 instructions:  265000002 cycles:  205944233 heartbeat IPC: 1.02467 cumulative IPC: 1.01956 (Simulation time: 0 hr 12 min 24 sec) 
Heartbeat CPU  0 instructions:  266000003 cycles:  206923317 heartbeat IPC: 1.02136 cumulative IPC: 1.01957 (Simulation time: 0 hr 12 min 27 sec) 
Heartbeat CPU  0 instructions:  267000001 cycles:  207927650 heartbeat IPC: 0.99568 cumulative IPC: 1.01943 (Simulation time: 0 hr 12 min 31 sec) 
Heartbeat CPU  0 instructions:  268000000 cycles:  208887247 heartbeat IPC: 1.04210 cumulative IPC: 1.01956 (Simulation time: 0 hr 12 min 34 sec) 
Heartbeat CPU  0 instructions:  269000001 cycles:  209863566 heartbeat IPC: 1.02426 cumulative IPC: 1.01959 (Simulation time: 0 hr 12 min 37 sec) 
Heartbeat CPU  0 instructions:  270000003 cycles:  210837357 heartbeat IPC: 1.02692 cumulative IPC: 1.01963 (Simulation time: 0 hr 12 min 40 sec) 
Heartbeat CPU  0 instructions:  271000000 cycles:  211801594 heartbeat IPC: 1.03709 cumulative IPC: 1.01973 (Simulation time: 0 hr 12 min 43 sec) 
Heartbeat CPU  0 instructions:  272000000 cycles:  212779373 heartbeat IPC: 1.02273 cumulative IPC: 1.01975 (Simulation time: 0 hr 12 min 46 sec) 
Heartbeat CPU  0 instructions:  273000001 cycles:  213750186 heartbeat IPC: 1.03007 cumulative IPC: 1.01981 (Simulation time: 0 hr 12 min 49 sec) 
Heartbeat CPU  0 instructions:  274000002 cycles:  214731912 heartbeat IPC: 1.01862 cumulative IPC: 1.01980 (Simulation time: 0 hr 12 min 52 sec) 
Heartbeat CPU  0 instructions:  275000000 cycles:  215715054 heartbeat IPC: 1.01715 cumulative IPC: 1.01978 (Simulation time: 0 hr 12 min 56 sec) 
Heartbeat CPU  0 instructions:  276000000 cycles:  216701147 heartbeat IPC: 1.01410 cumulative IPC: 1.01975 (Simulation time: 0 hr 12 min 59 sec) 
Heartbeat CPU  0 instructions:  277000000 cycles:  217688974 heartbeat IPC: 1.01232 cumulative IPC: 1.01971 (Simulation time: 0 hr 13 min 2 sec) 
Heartbeat CPU  0 instructions:  278000000 cycles:  218672204 heartbeat IPC: 1.01706 cumulative IPC: 1.01969 (Simulation time: 0 hr 13 min 5 sec) 
Heartbeat CPU  0 instructions:  279000003 cycles:  219672683 heartbeat IPC: 0.99952 cumulative IPC: 1.01958 (Simulation time: 0 hr 13 min 8 sec) 
Heartbeat CPU  0 instructions:  280000000 cycles:  220665194 heartbeat IPC: 1.00754 cumulative IPC: 1.01951 (Simulation time: 0 hr 13 min 11 sec) 
Heartbeat CPU  0 instructions:  281000000 cycles:  221656526 heartbeat IPC: 1.00874 cumulative IPC: 1.01945 (Simulation time: 0 hr 13 min 14 sec) 
Heartbeat CPU  0 instructions:  282000003 cycles:  222642002 heartbeat IPC: 1.01474 cumulative IPC: 1.01942 (Simulation time: 0 hr 13 min 17 sec) 
Heartbeat CPU  0 instructions:  283000000 cycles:  223625372 heartbeat IPC: 1.01691 cumulative IPC: 1.01941 (Simulation time: 0 hr 13 min 20 sec) 
Heartbeat CPU  0 instructions:  284000000 cycles:  224599472 heartbeat IPC: 1.02659 cumulative IPC: 1.01945 (Simulation time: 0 hr 13 min 24 sec) 
Heartbeat CPU  0 instructions:  285000003 cycles:  225593972 heartbeat IPC: 1.00553 cumulative IPC: 1.01937 (Simulation time: 0 hr 13 min 27 sec) 
Heartbeat CPU  0 instructions:  286000002 cycles:  226568578 heartbeat IPC: 1.02605 cumulative IPC: 1.01941 (Simulation time: 0 hr 13 min 30 sec) 
Heartbeat CPU  0 instructions:  287000000 cycles:  227538281 heartbeat IPC: 1.03124 cumulative IPC: 1.01947 (Simulation time: 0 hr 13 min 33 sec) 
Heartbeat CPU  0 instructions:  288000000 cycles:  228512715 heartbeat IPC: 1.02624 cumulative IPC: 1.01951 (Simulation time: 0 hr 13 min 36 sec) 
Heartbeat CPU  0 instructions:  289000000 cycles:  229496190 heartbeat IPC: 1.01680 cumulative IPC: 1.01949 (Simulation time: 0 hr 13 min 39 sec) 
Heartbeat CPU  0 instructions:  290000000 cycles:  230475984 heartbeat IPC: 1.02062 cumulative IPC: 1.01950 (Simulation time: 0 hr 13 min 42 sec) 
Heartbeat CPU  0 instructions:  291000003 cycles:  231427518 heartbeat IPC: 1.05094 cumulative IPC: 1.01966 (Simulation time: 0 hr 13 min 45 sec) 
Heartbeat CPU  0 instructions:  292000000 cycles:  232410173 heartbeat IPC: 1.01765 cumulative IPC: 1.01965 (Simulation time: 0 hr 13 min 48 sec) 
Heartbeat CPU  0 instructions:  293000002 cycles:  233384635 heartbeat IPC: 1.02621 cumulative IPC: 1.01968 (Simulation time: 0 hr 13 min 52 sec) 
Heartbeat CPU  0 instructions:  294000003 cycles:  234369108 heartbeat IPC: 1.01577 cumulative IPC: 1.01966 (Simulation time: 0 hr 13 min 55 sec) 
Heartbeat CPU  0 instructions:  295000000 cycles:  235359111 heartbeat IPC: 1.01009 cumulative IPC: 1.01961 (Simulation time: 0 hr 13 min 58 sec) 
Heartbeat CPU  0 instructions:  296000000 cycles:  236327644 heartbeat IPC: 1.03249 cumulative IPC: 1.01968 (Simulation time: 0 hr 14 min 1 sec) 
Heartbeat CPU  0 instructions:  297000003 cycles:  237331268 heartbeat IPC: 0.99639 cumulative IPC: 1.01956 (Simulation time: 0 hr 14 min 4 sec) 
Heartbeat CPU  0 instructions:  298000002 cycles:  238322533 heartbeat IPC: 1.00881 cumulative IPC: 1.01950 (Simulation time: 0 hr 14 min 7 sec) 
Heartbeat CPU  0 instructions:  299000002 cycles:  239812686 heartbeat IPC: 0.67107 cumulative IPC: 1.01685 (Simulation time: 0 hr 14 min 11 sec) 
Heartbeat CPU  0 instructions:  300000000 cycles:  241434827 heartbeat IPC: 0.61647 cumulative IPC: 1.01356 (Simulation time: 0 hr 14 min 15 sec) 
Heartbeat CPU  0 instructions:  301000000 cycles:  243042024 heartbeat IPC: 0.62220 cumulative IPC: 1.01040 (Simulation time: 0 hr 14 min 19 sec) 
Heartbeat CPU  0 instructions:  302000003 cycles:  244647257 heartbeat IPC: 0.62296 cumulative IPC: 1.00729 (Simulation time: 0 hr 14 min 23 sec) 
Heartbeat CPU  0 instructions:  303000002 cycles:  246250034 heartbeat IPC: 0.62392 cumulative IPC: 1.00425 (Simulation time: 0 hr 14 min 27 sec) 
Heartbeat CPU  0 instructions:  304000000 cycles:  247846804 heartbeat IPC: 0.62626 cumulative IPC: 1.00129 (Simulation time: 0 hr 14 min 31 sec) 
Heartbeat CPU  0 instructions:  305000000 cycles:  249456677 heartbeat IPC: 0.62117 cumulative IPC: 0.99831 (Simulation time: 0 hr 14 min 35 sec) 
Heartbeat CPU  0 instructions:  306000001 cycles:  251066279 heartbeat IPC: 0.62127 cumulative IPC: 0.99538 (Simulation time: 0 hr 14 min 39 sec) 
Heartbeat CPU  0 instructions:  307000000 cycles:  252673153 heartbeat IPC: 0.62233 cumulative IPC: 0.99250 (Simulation time: 0 hr 14 min 43 sec) 
Heartbeat CPU  0 instructions:  308000000 cycles:  254276360 heartbeat IPC: 0.62375 cumulative IPC: 0.98969 (Simulation time: 0 hr 14 min 47 sec) 
Heartbeat CPU  0 instructions:  309000001 cycles:  255874888 heartbeat IPC: 0.62558 cumulative IPC: 0.98694 (Simulation time: 0 hr 14 min 51 sec) 
Heartbeat CPU  0 instructions:  310000001 cycles:  257467653 heartbeat IPC: 0.62784 cumulative IPC: 0.98426 (Simulation time: 0 hr 14 min 55 sec) 
Heartbeat CPU  0 instructions:  311000000 cycles:  259063342 heartbeat IPC: 0.62669 cumulative IPC: 0.98161 (Simulation time: 0 hr 14 min 59 sec) 
Heartbeat CPU  0 instructions:  312000000 cycles:  260661390 heartbeat IPC: 0.62576 cumulative IPC: 0.97898 (Simulation time: 0 hr 15 min 3 sec) 
Heartbeat CPU  0 instructions:  313000003 cycles:  262269633 heartbeat IPC: 0.62180 cumulative IPC: 0.97635 (Simulation time: 0 hr 15 min 7 sec) 
Heartbeat CPU  0 instructions:  314000001 cycles:  263866958 heartbeat IPC: 0.62605 cumulative IPC: 0.97380 (Simulation time: 0 hr 15 min 11 sec) 
Heartbeat CPU  0 instructions:  315000001 cycles:  265465929 heartbeat IPC: 0.62540 cumulative IPC: 0.97129 (Simulation time: 0 hr 15 min 15 sec) 
Heartbeat CPU  0 instructions:  316000000 cycles:  267061320 heartbeat IPC: 0.62680 cumulative IPC: 0.96882 (Simulation time: 0 hr 15 min 19 sec) 
Heartbeat CPU  0 instructions:  317000001 cycles:  268663769 heartbeat IPC: 0.62405 cumulative IPC: 0.96636 (Simulation time: 0 hr 15 min 23 sec) 
Heartbeat CPU  0 instructions:  318000001 cycles:  270258431 heartbeat IPC: 0.62709 cumulative IPC: 0.96397 (Simulation time: 0 hr 15 min 27 sec) 
Heartbeat CPU  0 instructions:  319000001 cycles:  271858506 heartbeat IPC: 0.62497 cumulative IPC: 0.96159 (Simulation time: 0 hr 15 min 31 sec) 
Heartbeat CPU  0 instructions:  320000000 cycles:  273461723 heartbeat IPC: 0.62375 cumulative IPC: 0.95923 (Simulation time: 0 hr 15 min 35 sec) 
Heartbeat CPU  0 instructions:  321000000 cycles:  275063765 heartbeat IPC: 0.62420 cumulative IPC: 0.95690 (Simulation time: 0 hr 15 min 39 sec) 
Heartbeat CPU  0 instructions:  322000000 cycles:  276664274 heartbeat IPC: 0.62480 cumulative IPC: 0.95462 (Simulation time: 0 hr 15 min 43 sec) 
Heartbeat CPU  0 instructions:  323000000 cycles:  278260866 heartbeat IPC: 0.62633 cumulative IPC: 0.95238 (Simulation time: 0 hr 15 min 47 sec) 
Heartbeat CPU  0 instructions:  324000000 cycles:  279860163 heartbeat IPC: 0.62527 cumulative IPC: 0.95016 (Simulation time: 0 hr 15 min 51 sec) 
Heartbeat CPU  0 instructions:  325000001 cycles:  281461780 heartbeat IPC: 0.62437 cumulative IPC: 0.94796 (Simulation time: 0 hr 15 min 55 sec) 
Heartbeat CPU  0 instructions:  326000000 cycles:  283064356 heartbeat IPC: 0.62399 cumulative IPC: 0.94579 (Simulation time: 0 hr 15 min 59 sec) 
Heartbeat CPU  0 instructions:  327000002 cycles:  284669831 heartbeat IPC: 0.62287 cumulative IPC: 0.94363 (Simulation time: 0 hr 16 min 3 sec) 
Heartbeat CPU  0 instructions:  328000000 cycles:  286274111 heartbeat IPC: 0.62333 cumulative IPC: 0.94151 (Simulation time: 0 hr 16 min 7 sec) 
Heartbeat CPU  0 instructions:  329000000 cycles:  287873418 heartbeat IPC: 0.62527 cumulative IPC: 0.93944 (Simulation time: 0 hr 16 min 11 sec) 
Heartbeat CPU  0 instructions:  330000003 cycles:  289469951 heartbeat IPC: 0.62636 cumulative IPC: 0.93740 (Simulation time: 0 hr 16 min 15 sec) 
Heartbeat CPU  0 instructions:  331000000 cycles:  291066412 heartbeat IPC: 0.62638 cumulative IPC: 0.93539 (Simulation time: 0 hr 16 min 19 sec) 
Heartbeat CPU  0 instructions:  332000000 cycles:  292686636 heartbeat IPC: 0.61720 cumulative IPC: 0.93331 (Simulation time: 0 hr 16 min 24 sec) 
Heartbeat CPU  0 instructions:  333000003 cycles:  294291753 heartbeat IPC: 0.62301 cumulative IPC: 0.93132 (Simulation time: 0 hr 16 min 28 sec) 
Heartbeat CPU  0 instructions:  334000000 cycles:  295894693 heartbeat IPC: 0.62385 cumulative IPC: 0.92937 (Simulation time: 0 hr 16 min 32 sec) 
Heartbeat CPU  0 instructions:  335000002 cycles:  297498371 heartbeat IPC: 0.62357 cumulative IPC: 0.92743 (Simulation time: 0 hr 16 min 36 sec) 
Heartbeat CPU  0 instructions:  336000000 cycles:  299093589 heartbeat IPC: 0.62687 cumulative IPC: 0.92555 (Simulation time: 0 hr 16 min 41 sec) 
Heartbeat CPU  0 instructions:  337000001 cycles:  300700570 heartbeat IPC: 0.62229 cumulative IPC: 0.92365 (Simulation time: 0 hr 16 min 45 sec) 
Heartbeat CPU  0 instructions:  338000003 cycles:  302300240 heartbeat IPC: 0.62513 cumulative IPC: 0.92180 (Simulation time: 0 hr 16 min 49 sec) 
Heartbeat CPU  0 instructions:  339000000 cycles:  303907150 heartbeat IPC: 0.62231 cumulative IPC: 0.91995 (Simulation time: 0 hr 16 min 54 sec) 
Heartbeat CPU  0 instructions:  340000000 cycles:  305522917 heartbeat IPC: 0.61890 cumulative IPC: 0.91809 (Simulation time: 0 hr 16 min 58 sec) 
Heartbeat CPU  0 instructions:  341000002 cycles:  307124257 heartbeat IPC: 0.62448 cumulative IPC: 0.91630 (Simulation time: 0 hr 17 min 3 sec) 
Heartbeat CPU  0 instructions:  342000000 cycles:  308726591 heartbeat IPC: 0.62409 cumulative IPC: 0.91453 (Simulation time: 0 hr 17 min 7 sec) 
Heartbeat CPU  0 instructions:  343000000 cycles:  310322041 heartbeat IPC: 0.62678 cumulative IPC: 0.91281 (Simulation time: 0 hr 17 min 11 sec) 
Heartbeat CPU  0 instructions:  344000000 cycles:  311921938 heartbeat IPC: 0.62504 cumulative IPC: 0.91109 (Simulation time: 0 hr 17 min 15 sec) 
Heartbeat CPU  0 instructions:  345000000 cycles:  313531336 heartbeat IPC: 0.62135 cumulative IPC: 0.90936 (Simulation time: 0 hr 17 min 20 sec) 
Heartbeat CPU  0 instructions:  346000001 cycles:  315134183 heartbeat IPC: 0.62389 cumulative IPC: 0.90767 (Simulation time: 0 hr 17 min 24 sec) 
Heartbeat CPU  0 instructions:  347000000 cycles:  316735636 heartbeat IPC: 0.62443 cumulative IPC: 0.90600 (Simulation time: 0 hr 17 min 28 sec) 
Heartbeat CPU  0 instructions:  348000000 cycles:  318341677 heartbeat IPC: 0.62265 cumulative IPC: 0.90434 (Simulation time: 0 hr 17 min 33 sec) 
Heartbeat CPU  0 instructions:  349000001 cycles:  319943787 heartbeat IPC: 0.62418 cumulative IPC: 0.90272 (Simulation time: 0 hr 17 min 37 sec) 
Heartbeat CPU  0 instructions:  350000003 cycles:  321544531 heartbeat IPC: 0.62471 cumulative IPC: 0.90111 (Simulation time: 0 hr 17 min 42 sec) 
Heartbeat CPU  0 instructions:  351000001 cycles:  323149002 heartbeat IPC: 0.62326 cumulative IPC: 0.89952 (Simulation time: 0 hr 17 min 46 sec) 
Heartbeat CPU  0 instructions:  352000000 cycles:  324752373 heartbeat IPC: 0.62369 cumulative IPC: 0.89794 (Simulation time: 0 hr 17 min 50 sec) 
Heartbeat CPU  0 instructions:  353000000 cycles:  326361237 heartbeat IPC: 0.62156 cumulative IPC: 0.89636 (Simulation time: 0 hr 17 min 55 sec) 
Heartbeat CPU  0 instructions:  354000001 cycles:  327972734 heartbeat IPC: 0.62054 cumulative IPC: 0.89480 (Simulation time: 0 hr 17 min 59 sec) 
Heartbeat CPU  0 instructions:  355000003 cycles:  329575167 heartbeat IPC: 0.62405 cumulative IPC: 0.89328 (Simulation time: 0 hr 18 min 3 sec) 
Heartbeat CPU  0 instructions:  356000000 cycles:  331177884 heartbeat IPC: 0.62394 cumulative IPC: 0.89177 (Simulation time: 0 hr 18 min 8 sec) 
Heartbeat CPU  0 instructions:  357000001 cycles:  332772337 heartbeat IPC: 0.62717 cumulative IPC: 0.89031 (Simulation time: 0 hr 18 min 12 sec) 
Heartbeat CPU  0 instructions:  358000002 cycles:  334371290 heartbeat IPC: 0.62541 cumulative IPC: 0.88885 (Simulation time: 0 hr 18 min 17 sec) 
Heartbeat CPU  0 instructions:  359000000 cycles:  335973112 heartbeat IPC: 0.62429 cumulative IPC: 0.88740 (Simulation time: 0 hr 18 min 21 sec) 
Heartbeat CPU  0 instructions:  360000000 cycles:  337579585 heartbeat IPC: 0.62248 cumulative IPC: 0.88595 (Simulation time: 0 hr 18 min 26 sec) 
Heartbeat CPU  0 instructions:  361000003 cycles:  339185066 heartbeat IPC: 0.62287 cumulative IPC: 0.88452 (Simulation time: 0 hr 18 min 30 sec) 
Heartbeat CPU  0 instructions:  362000001 cycles:  340784057 heartbeat IPC: 0.62539 cumulative IPC: 0.88312 (Simulation time: 0 hr 18 min 35 sec) 
Heartbeat CPU  0 instructions:  363000002 cycles:  342385104 heartbeat IPC: 0.62459 cumulative IPC: 0.88174 (Simulation time: 0 hr 18 min 39 sec) 
Heartbeat CPU  0 instructions:  364000000 cycles:  343984530 heartbeat IPC: 0.62522 cumulative IPC: 0.88037 (Simulation time: 0 hr 18 min 44 sec) 
Heartbeat CPU  0 instructions:  365000000 cycles:  345588446 heartbeat IPC: 0.62347 cumulative IPC: 0.87900 (Simulation time: 0 hr 18 min 48 sec) 
Heartbeat CPU  0 instructions:  366000002 cycles:  347196516 heartbeat IPC: 0.62186 cumulative IPC: 0.87764 (Simulation time: 0 hr 18 min 52 sec) 
Heartbeat CPU  0 instructions:  367000003 cycles:  348802792 heartbeat IPC: 0.62256 cumulative IPC: 0.87629 (Simulation time: 0 hr 18 min 57 sec) 
Heartbeat CPU  0 instructions:  368000000 cycles:  350404156 heartbeat IPC: 0.62447 cumulative IPC: 0.87498 (Simulation time: 0 hr 19 min 1 sec) 
Heartbeat CPU  0 instructions:  369000003 cycles:  352006720 heartbeat IPC: 0.62400 cumulative IPC: 0.87367 (Simulation time: 0 hr 19 min 6 sec) 
Heartbeat CPU  0 instructions:  370000000 cycles:  353611550 heartbeat IPC: 0.62312 cumulative IPC: 0.87237 (Simulation time: 0 hr 19 min 10 sec) 
Heartbeat CPU  0 instructions:  371000002 cycles:  355210919 heartbeat IPC: 0.62525 cumulative IPC: 0.87110 (Simulation time: 0 hr 19 min 14 sec) 
Heartbeat CPU  0 instructions:  372000000 cycles:  356813686 heartbeat IPC: 0.62392 cumulative IPC: 0.86983 (Simulation time: 0 hr 19 min 19 sec) 
Heartbeat CPU  0 instructions:  373000000 cycles:  358414552 heartbeat IPC: 0.62466 cumulative IPC: 0.86858 (Simulation time: 0 hr 19 min 23 sec) 
Heartbeat CPU  0 instructions:  374000001 cycles:  360019949 heartbeat IPC: 0.62290 cumulative IPC: 0.86734 (Simulation time: 0 hr 19 min 28 sec) 
Heartbeat CPU  0 instructions:  375000003 cycles:  361622394 heartbeat IPC: 0.62405 cumulative IPC: 0.86611 (Simulation time: 0 hr 19 min 32 sec) 
Heartbeat CPU  0 instructions:  376000000 cycles:  363225311 heartbeat IPC: 0.62386 cumulative IPC: 0.86489 (Simulation time: 0 hr 19 min 36 sec) 
Heartbeat CPU  0 instructions:  377000002 cycles:  364821163 heartbeat IPC: 0.62663 cumulative IPC: 0.86371 (Simulation time: 0 hr 19 min 41 sec) 
Heartbeat CPU  0 instructions:  378000000 cycles:  366419045 heartbeat IPC: 0.62583 cumulative IPC: 0.86253 (Simulation time: 0 hr 19 min 45 sec) 
Heartbeat CPU  0 instructions:  379000001 cycles:  368023845 heartbeat IPC: 0.62313 cumulative IPC: 0.86134 (Simulation time: 0 hr 19 min 50 sec) 
Heartbeat CPU  0 instructions:  380000000 cycles:  369630992 heartbeat IPC: 0.62222 cumulative IPC: 0.86016 (Simulation time: 0 hr 19 min 54 sec) 
Heartbeat CPU  0 instructions:  381000003 cycles:  371237555 heartbeat IPC: 0.62245 cumulative IPC: 0.85899 (Simulation time: 0 hr 19 min 58 sec) 
Heartbeat CPU  0 instructions:  382000000 cycles:  372842329 heartbeat IPC: 0.62314 cumulative IPC: 0.85784 (Simulation time: 0 hr 20 min 3 sec) 
Heartbeat CPU  0 instructions:  383000002 cycles:  374441063 heartbeat IPC: 0.62550 cumulative IPC: 0.85672 (Simulation time: 0 hr 20 min 7 sec) 
Heartbeat CPU  0 instructions:  384000000 cycles:  376041619 heartbeat IPC: 0.62478 cumulative IPC: 0.85560 (Simulation time: 0 hr 20 min 11 sec) 
Heartbeat CPU  0 instructions:  385000000 cycles:  377651732 heartbeat IPC: 0.62107 cumulative IPC: 0.85447 (Simulation time: 0 hr 20 min 16 sec) 
Heartbeat CPU  0 instructions:  386000003 cycles:  379253782 heartbeat IPC: 0.62420 cumulative IPC: 0.85336 (Simulation time: 0 hr 20 min 20 sec) 
Heartbeat CPU  0 instructions:  387000001 cycles:  380858273 heartbeat IPC: 0.62325 cumulative IPC: 0.85227 (Simulation time: 0 hr 20 min 25 sec) 
Heartbeat CPU  0 instructions:  388000000 cycles:  382464267 heartbeat IPC: 0.62267 cumulative IPC: 0.85118 (Simulation time: 0 hr 20 min 29 sec) 
Heartbeat CPU  0 instructions:  389000001 cycles:  384067448 heartbeat IPC: 0.62376 cumulative IPC: 0.85011 (Simulation time: 0 hr 20 min 33 sec) 
Heartbeat CPU  0 instructions:  390000000 cycles:  385667144 heartbeat IPC: 0.62512 cumulative IPC: 0.84905 (Simulation time: 0 hr 20 min 38 sec) 
Heartbeat CPU  0 instructions:  391000001 cycles:  387267170 heartbeat IPC: 0.62499 cumulative IPC: 0.84801 (Simulation time: 0 hr 20 min 42 sec) 
Heartbeat CPU  0 instructions:  392000000 cycles:  388869485 heartbeat IPC: 0.62410 cumulative IPC: 0.84697 (Simulation time: 0 hr 20 min 46 sec) 
Heartbeat CPU  0 instructions:  393000001 cycles:  390473567 heartbeat IPC: 0.62341 cumulative IPC: 0.84593 (Simulation time: 0 hr 20 min 51 sec) 
Heartbeat CPU  0 instructions:  394000002 cycles:  392082160 heartbeat IPC: 0.62166 cumulative IPC: 0.84490 (Simulation time: 0 hr 20 min 55 sec) 
Heartbeat CPU  0 instructions:  395000000 cycles:  393686975 heartbeat IPC: 0.62312 cumulative IPC: 0.84388 (Simulation time: 0 hr 20 min 59 sec) 
Heartbeat CPU  0 instructions:  396000000 cycles:  395287223 heartbeat IPC: 0.62490 cumulative IPC: 0.84288 (Simulation time: 0 hr 21 min 4 sec) 
Heartbeat CPU  0 instructions:  397000003 cycles:  396885572 heartbeat IPC: 0.62565 cumulative IPC: 0.84189 (Simulation time: 0 hr 21 min 8 sec) 
Heartbeat CPU  0 instructions:  398000000 cycles:  398486789 heartbeat IPC: 0.62452 cumulative IPC: 0.84091 (Simulation time: 0 hr 21 min 12 sec) 
Heartbeat CPU  0 instructions:  399000003 cycles:  400085468 heartbeat IPC: 0.62552 cumulative IPC: 0.83995 (Simulation time: 0 hr 21 min 17 sec) 
Heartbeat CPU  0 instructions:  400000000 cycles:  401692488 heartbeat IPC: 0.62227 cumulative IPC: 0.83897 (Simulation time: 0 hr 21 min 21 sec) 
Heartbeat CPU  0 instructions:  401000000 cycles:  403292962 heartbeat IPC: 0.62481 cumulative IPC: 0.83801 (Simulation time: 0 hr 21 min 26 sec) 
Heartbeat CPU  0 instructions:  402000002 cycles:  404893129 heartbeat IPC: 0.62494 cumulative IPC: 0.83707 (Simulation time: 0 hr 21 min 30 sec) 
Heartbeat CPU  0 instructions:  403000003 cycles:  406496331 heartbeat IPC: 0.62375 cumulative IPC: 0.83612 (Simulation time: 0 hr 21 min 35 sec) 
Heartbeat CPU  0 instructions:  404000000 cycles:  408093022 heartbeat IPC: 0.62629 cumulative IPC: 0.83520 (Simulation time: 0 hr 21 min 39 sec) 
Heartbeat CPU  0 instructions:  405000001 cycles:  409689479 heartbeat IPC: 0.62639 cumulative IPC: 0.83429 (Simulation time: 0 hr 21 min 44 sec) 
Heartbeat CPU  0 instructions:  406000003 cycles:  411297398 heartbeat IPC: 0.62192 cumulative IPC: 0.83336 (Simulation time: 0 hr 21 min 48 sec) 
Heartbeat CPU  0 instructions:  407000000 cycles:  412907119 heartbeat IPC: 0.62122 cumulative IPC: 0.83244 (Simulation time: 0 hr 21 min 53 sec) 
Heartbeat CPU  0 instructions:  408000000 cycles:  414521134 heartbeat IPC: 0.61957 cumulative IPC: 0.83151 (Simulation time: 0 hr 21 min 57 sec) 
Heartbeat CPU  0 instructions:  409000003 cycles:  416123854 heartbeat IPC: 0.62394 cumulative IPC: 0.83061 (Simulation time: 0 hr 22 min 1 sec) 
Heartbeat CPU  0 instructions:  410000001 cycles:  417718828 heartbeat IPC: 0.62697 cumulative IPC: 0.82974 (Simulation time: 0 hr 22 min 6 sec) 
Heartbeat CPU  0 instructions:  411000003 cycles:  419316662 heartbeat IPC: 0.62585 cumulative IPC: 0.82888 (Simulation time: 0 hr 22 min 10 sec) 
Heartbeat CPU  0 instructions:  412000000 cycles:  420919412 heartbeat IPC: 0.62393 cumulative IPC: 0.82800 (Simulation time: 0 hr 22 min 15 sec) 
Heartbeat CPU  0 instructions:  413000000 cycles:  422532419 heartbeat IPC: 0.61996 cumulative IPC: 0.82712 (Simulation time: 0 hr 22 min 20 sec) 
Heartbeat CPU  0 instructions:  414000000 cycles:  424135514 heartbeat IPC: 0.62379 cumulative IPC: 0.82626 (Simulation time: 0 hr 22 min 24 sec) 
Heartbeat CPU  0 instructions:  415000002 cycles:  425738647 heartbeat IPC: 0.62378 cumulative IPC: 0.82541 (Simulation time: 0 hr 22 min 28 sec) 
Heartbeat CPU  0 instructions:  416000000 cycles:  427341300 heartbeat IPC: 0.62396 cumulative IPC: 0.82457 (Simulation time: 0 hr 22 min 33 sec) 
Heartbeat CPU  0 instructions:  417000000 cycles:  428935231 heartbeat IPC: 0.62738 cumulative IPC: 0.82375 (Simulation time: 0 hr 22 min 37 sec) 
Heartbeat CPU  0 instructions:  418000000 cycles:  430536169 heartbeat IPC: 0.62463 cumulative IPC: 0.82293 (Simulation time: 0 hr 22 min 41 sec) 
Heartbeat CPU  0 instructions:  419000002 cycles:  432136898 heartbeat IPC: 0.62472 cumulative IPC: 0.82211 (Simulation time: 0 hr 22 min 46 sec) 
Heartbeat CPU  0 instructions:  420000000 cycles:  433743620 heartbeat IPC: 0.62238 cumulative IPC: 0.82128 (Simulation time: 0 hr 22 min 50 sec) 
Heartbeat CPU  0 instructions:  421000001 cycles:  435354460 heartbeat IPC: 0.62079 cumulative IPC: 0.82046 (Simulation time: 0 hr 22 min 54 sec) 
Heartbeat CPU  0 instructions:  422000002 cycles:  436954770 heartbeat IPC: 0.62488 cumulative IPC: 0.81966 (Simulation time: 0 hr 22 min 58 sec) 
Heartbeat CPU  0 instructions:  423000001 cycles:  438554245 heartbeat IPC: 0.62520 cumulative IPC: 0.81887 (Simulation time: 0 hr 23 min 3 sec) 
Heartbeat CPU  0 instructions:  424000000 cycles:  440151266 heartbeat IPC: 0.62617 cumulative IPC: 0.81810 (Simulation time: 0 hr 23 min 7 sec) 
Heartbeat CPU  0 instructions:  425000002 cycles:  441749074 heartbeat IPC: 0.62586 cumulative IPC: 0.81732 (Simulation time: 0 hr 23 min 11 sec) 
Heartbeat CPU  0 instructions:  426000002 cycles:  443353225 heartbeat IPC: 0.62338 cumulative IPC: 0.81654 (Simulation time: 0 hr 23 min 15 sec) 
Heartbeat CPU  0 instructions:  427000001 cycles:  444956839 heartbeat IPC: 0.62359 cumulative IPC: 0.81577 (Simulation time: 0 hr 23 min 20 sec) 
Heartbeat CPU  0 instructions:  428000000 cycles:  446560243 heartbeat IPC: 0.62367 cumulative IPC: 0.81501 (Simulation time: 0 hr 23 min 24 sec) 
Heartbeat CPU  0 instructions:  429000001 cycles:  448154830 heartbeat IPC: 0.62712 cumulative IPC: 0.81427 (Simulation time: 0 hr 23 min 28 sec) 
Heartbeat CPU  0 instructions:  430000003 cycles:  452764190 heartbeat IPC: 0.21695 cumulative IPC: 0.80753 (Simulation time: 0 hr 23 min 35 sec) 
Heartbeat CPU  0 instructions:  431000003 cycles:  457961011 heartbeat IPC: 0.19243 cumulative IPC: 0.79980 (Simulation time: 0 hr 23 min 42 sec) 
Heartbeat CPU  0 instructions:  432000000 cycles:  463304278 heartbeat IPC: 0.18715 cumulative IPC: 0.79200 (Simulation time: 0 hr 23 min 50 sec) 
Heartbeat CPU  0 instructions:  433000003 cycles:  468643927 heartbeat IPC: 0.18728 cumulative IPC: 0.78439 (Simulation time: 0 hr 23 min 57 sec) 
Heartbeat CPU  0 instructions:  434000002 cycles:  473998040 heartbeat IPC: 0.18677 cumulative IPC: 0.77695 (Simulation time: 0 hr 24 min 4 sec) 
Heartbeat CPU  0 instructions:  435000002 cycles:  479521812 heartbeat IPC: 0.18104 cumulative IPC: 0.76939 (Simulation time: 0 hr 24 min 12 sec) 
Heartbeat CPU  0 instructions:  436000000 cycles:  484634114 heartbeat IPC: 0.19561 cumulative IPC: 0.76273 (Simulation time: 0 hr 24 min 19 sec) 
Heartbeat CPU  0 instructions:  437000002 cycles:  489425138 heartbeat IPC: 0.20872 cumulative IPC: 0.75677 (Simulation time: 0 hr 24 min 25 sec) 
Heartbeat CPU  0 instructions:  438000003 cycles:  494312671 heartbeat IPC: 0.20460 cumulative IPC: 0.75077 (Simulation time: 0 hr 24 min 32 sec) 
Heartbeat CPU  0 instructions:  439000000 cycles:  499175151 heartbeat IPC: 0.20566 cumulative IPC: 0.74495 (Simulation time: 0 hr 24 min 39 sec) 
Heartbeat CPU  0 instructions:  440000000 cycles:  501401150 heartbeat IPC: 0.44924 cumulative IPC: 0.74351 (Simulation time: 0 hr 24 min 43 sec) 
Heartbeat CPU  0 instructions:  441000000 cycles:  503019543 heartbeat IPC: 0.61790 cumulative IPC: 0.74307 (Simulation time: 0 hr 24 min 48 sec) 
Heartbeat CPU  0 instructions:  442000001 cycles:  504614193 heartbeat IPC: 0.62710 cumulative IPC: 0.74266 (Simulation time: 0 hr 24 min 52 sec) 
Heartbeat CPU  0 instructions:  443000000 cycles:  506198743 heartbeat IPC: 0.63109 cumulative IPC: 0.74228 (Simulation time: 0 hr 24 min 56 sec) 
Heartbeat CPU  0 instructions:  444000000 cycles:  507783290 heartbeat IPC: 0.63110 cumulative IPC: 0.74190 (Simulation time: 0 hr 25 min 0 sec) 
Heartbeat CPU  0 instructions:  445000001 cycles:  509368386 heartbeat IPC: 0.63088 cumulative IPC: 0.74152 (Simulation time: 0 hr 25 min 5 sec) 
Heartbeat CPU  0 instructions:  446000000 cycles:  510955056 heartbeat IPC: 0.63025 cumulative IPC: 0.74115 (Simulation time: 0 hr 25 min 9 sec) 
Heartbeat CPU  0 instructions:  447000001 cycles:  512546538 heartbeat IPC: 0.62835 cumulative IPC: 0.74076 (Simulation time: 0 hr 25 min 13 sec) 
Heartbeat CPU  0 instructions:  448000000 cycles:  514135485 heartbeat IPC: 0.62935 cumulative IPC: 0.74039 (Simulation time: 0 hr 25 min 17 sec) 
Heartbeat CPU  0 instructions:  449000003 cycles:  515726761 heartbeat IPC: 0.62843 cumulative IPC: 0.74001 (Simulation time: 0 hr 25 min 22 sec) 
Heartbeat CPU  0 instructions:  450000000 cycles:  517319787 heartbeat IPC: 0.62773 cumulative IPC: 0.73963 (Simulation time: 0 hr 25 min 26 sec) 
Heartbeat CPU  0 instructions:  451000000 cycles:  518903077 heartbeat IPC: 0.63160 cumulative IPC: 0.73927 (Simulation time: 0 hr 25 min 30 sec) 
Heartbeat CPU  0 instructions:  452000000 cycles:  520484057 heartbeat IPC: 0.63252 cumulative IPC: 0.73892 (Simulation time: 0 hr 25 min 34 sec) 
Heartbeat CPU  0 instructions:  453000001 cycles:  522063453 heartbeat IPC: 0.63315 cumulative IPC: 0.73857 (Simulation time: 0 hr 25 min 39 sec) 
Heartbeat CPU  0 instructions:  454000003 cycles:  523646948 heartbeat IPC: 0.63152 cumulative IPC: 0.73821 (Simulation time: 0 hr 25 min 43 sec) 
Heartbeat CPU  0 instructions:  455000003 cycles:  525230536 heartbeat IPC: 0.63148 cumulative IPC: 0.73786 (Simulation time: 0 hr 25 min 47 sec) 
Heartbeat CPU  0 instructions:  456000000 cycles:  526814593 heartbeat IPC: 0.63129 cumulative IPC: 0.73751 (Simulation time: 0 hr 25 min 51 sec) 
Heartbeat CPU  0 instructions:  457000002 cycles:  528398498 heartbeat IPC: 0.63135 cumulative IPC: 0.73716 (Simulation time: 0 hr 25 min 56 sec) 
Heartbeat CPU  0 instructions:  458000002 cycles:  529981595 heartbeat IPC: 0.63167 cumulative IPC: 0.73682 (Simulation time: 0 hr 26 min 0 sec) 
Heartbeat CPU  0 instructions:  459000000 cycles:  531562996 heartbeat IPC: 0.63235 cumulative IPC: 0.73648 (Simulation time: 0 hr 26 min 4 sec) 
Heartbeat CPU  0 instructions:  460000000 cycles:  533139272 heartbeat IPC: 0.63441 cumulative IPC: 0.73615 (Simulation time: 0 hr 26 min 9 sec) 
Heartbeat CPU  0 instructions:  461000001 cycles:  534723685 heartbeat IPC: 0.63115 cumulative IPC: 0.73581 (Simulation time: 0 hr 26 min 13 sec) 
Heartbeat CPU  0 instructions:  462000001 cycles:  536307502 heartbeat IPC: 0.63139 cumulative IPC: 0.73548 (Simulation time: 0 hr 26 min 17 sec) 
Heartbeat CPU  0 instructions:  463000002 cycles:  537896477 heartbeat IPC: 0.62934 cumulative IPC: 0.73514 (Simulation time: 0 hr 26 min 21 sec) 
Heartbeat CPU  0 instructions:  464000000 cycles:  539481911 heartbeat IPC: 0.63074 cumulative IPC: 0.73480 (Simulation time: 0 hr 26 min 26 sec) 
Heartbeat CPU  0 instructions:  465000000 cycles:  541065249 heartbeat IPC: 0.63158 cumulative IPC: 0.73447 (Simulation time: 0 hr 26 min 30 sec) 
Heartbeat CPU  0 instructions:  466000000 cycles:  542647483 heartbeat IPC: 0.63202 cumulative IPC: 0.73415 (Simulation time: 0 hr 26 min 34 sec) 
Heartbeat CPU  0 instructions:  467000003 cycles:  544225672 heartbeat IPC: 0.63364 cumulative IPC: 0.73383 (Simulation time: 0 hr 26 min 38 sec) 
Heartbeat CPU  0 instructions:  468000000 cycles:  545809588 heartbeat IPC: 0.63134 cumulative IPC: 0.73351 (Simulation time: 0 hr 26 min 43 sec) 
Heartbeat CPU  0 instructions:  469000001 cycles:  547394931 heartbeat IPC: 0.63078 cumulative IPC: 0.73318 (Simulation time: 0 hr 26 min 47 sec) 
Heartbeat CPU  0 instructions:  470000002 cycles:  548984530 heartbeat IPC: 0.62909 cumulative IPC: 0.73286 (Simulation time: 0 hr 26 min 51 sec) 
Heartbeat CPU  0 instructions:  471000002 cycles:  550569991 heartbeat IPC: 0.63073 cumulative IPC: 0.73254 (Simulation time: 0 hr 26 min 55 sec) 
Heartbeat CPU  0 instructions:  472000000 cycles:  552157199 heartbeat IPC: 0.63004 cumulative IPC: 0.73222 (Simulation time: 0 hr 27 min 0 sec) 
Heartbeat CPU  0 instructions:  473000001 cycles:  553733850 heartbeat IPC: 0.63426 cumulative IPC: 0.73191 (Simulation time: 0 hr 27 min 4 sec) 
Heartbeat CPU  0 instructions:  474000002 cycles:  555318743 heartbeat IPC: 0.63096 cumulative IPC: 0.73160 (Simulation time: 0 hr 27 min 8 sec) 
Heartbeat CPU  0 instructions:  475000003 cycles:  556900306 heartbeat IPC: 0.63229 cumulative IPC: 0.73129 (Simulation time: 0 hr 27 min 12 sec) 
Heartbeat CPU  0 instructions:  476000000 cycles:  558504732 heartbeat IPC: 0.62327 cumulative IPC: 0.73096 (Simulation time: 0 hr 27 min 17 sec) 
Heartbeat CPU  0 instructions:  477000000 cycles:  560092558 heartbeat IPC: 0.62979 cumulative IPC: 0.73064 (Simulation time: 0 hr 27 min 21 sec) 
Heartbeat CPU  0 instructions:  478000000 cycles:  561676807 heartbeat IPC: 0.63121 cumulative IPC: 0.73034 (Simulation time: 0 hr 27 min 25 sec) 
Heartbeat CPU  0 instructions:  479000002 cycles:  563265980 heartbeat IPC: 0.62926 cumulative IPC: 0.73003 (Simulation time: 0 hr 27 min 29 sec) 
Heartbeat CPU  0 instructions:  480000000 cycles:  564850941 heartbeat IPC: 0.63093 cumulative IPC: 0.72973 (Simulation time: 0 hr 27 min 34 sec) 
Heartbeat CPU  0 instructions:  481000001 cycles:  566431336 heartbeat IPC: 0.63275 cumulative IPC: 0.72944 (Simulation time: 0 hr 27 min 38 sec) 
Heartbeat CPU  0 instructions:  482000001 cycles:  568019928 heartbeat IPC: 0.62949 cumulative IPC: 0.72913 (Simulation time: 0 hr 27 min 42 sec) 
Heartbeat CPU  0 instructions:  483000001 cycles:  569607625 heartbeat IPC: 0.62984 cumulative IPC: 0.72883 (Simulation time: 0 hr 27 min 46 sec) 
Heartbeat CPU  0 instructions:  484000000 cycles:  571194859 heartbeat IPC: 0.63003 cumulative IPC: 0.72854 (Simulation time: 0 hr 27 min 50 sec) 
Heartbeat CPU  0 instructions:  485000000 cycles:  572793513 heartbeat IPC: 0.62553 cumulative IPC: 0.72822 (Simulation time: 0 hr 27 min 55 sec) 
Heartbeat CPU  0 instructions:  486000000 cycles:  574382427 heartbeat IPC: 0.62936 cumulative IPC: 0.72793 (Simulation time: 0 hr 27 min 59 sec) 
Heartbeat CPU  0 instructions:  487000003 cycles:  575966988 heartbeat IPC: 0.63109 cumulative IPC: 0.72764 (Simulation time: 0 hr 28 min 3 sec) 
Heartbeat CPU  0 instructions:  488000000 cycles:  577548826 heartbeat IPC: 0.63217 cumulative IPC: 0.72736 (Simulation time: 0 hr 28 min 7 sec) 
Heartbeat CPU  0 instructions:  489000003 cycles:  579129811 heartbeat IPC: 0.63252 cumulative IPC: 0.72708 (Simulation time: 0 hr 28 min 12 sec) 
Heartbeat CPU  0 instructions:  490000002 cycles:  580721098 heartbeat IPC: 0.62842 cumulative IPC: 0.72678 (Simulation time: 0 hr 28 min 16 sec) 
Heartbeat CPU  0 instructions:  491000000 cycles:  582312214 heartbeat IPC: 0.62849 cumulative IPC: 0.72649 (Simulation time: 0 hr 28 min 20 sec) 
Heartbeat CPU  0 instructions:  492000000 cycles:  583900257 heartbeat IPC: 0.62971 cumulative IPC: 0.72621 (Simulation time: 0 hr 28 min 24 sec) 
Heartbeat CPU  0 instructions:  493000003 cycles:  585491247 heartbeat IPC: 0.62854 cumulative IPC: 0.72592 (Simulation time: 0 hr 28 min 29 sec) 
Heartbeat CPU  0 instructions:  494000002 cycles:  587078509 heartbeat IPC: 0.63002 cumulative IPC: 0.72564 (Simulation time: 0 hr 28 min 33 sec) 
Heartbeat CPU  0 instructions:  495000001 cycles:  588659342 heartbeat IPC: 0.63258 cumulative IPC: 0.72537 (Simulation time: 0 hr 28 min 37 sec) 
Heartbeat CPU  0 instructions:  496000000 cycles:  590241918 heartbeat IPC: 0.63188 cumulative IPC: 0.72510 (Simulation time: 0 hr 28 min 41 sec) 
Heartbeat CPU  0 instructions:  497000003 cycles:  591827976 heartbeat IPC: 0.63050 cumulative IPC: 0.72483 (Simulation time: 0 hr 28 min 46 sec) 
Heartbeat CPU  0 instructions:  498000000 cycles:  593412039 heartbeat IPC: 0.63129 cumulative IPC: 0.72456 (Simulation time: 0 hr 28 min 50 sec) 
Heartbeat CPU  0 instructions:  499000002 cycles:  595007685 heartbeat IPC: 0.62671 cumulative IPC: 0.72427 (Simulation time: 0 hr 28 min 54 sec) 
Heartbeat CPU  0 instructions:  500000000 cycles:  596594882 heartbeat IPC: 0.63004 cumulative IPC: 0.72400 (Simulation time: 0 hr 28 min 58 sec) 
Heartbeat CPU  0 instructions:  501000003 cycles:  598180301 heartbeat IPC: 0.63075 cumulative IPC: 0.72373 (Simulation time: 0 hr 29 min 3 sec) 
Heartbeat CPU  0 instructions:  502000001 cycles:  599769613 heartbeat IPC: 0.62920 cumulative IPC: 0.72346 (Simulation time: 0 hr 29 min 7 sec) 
Heartbeat CPU  0 instructions:  503000000 cycles:  601353667 heartbeat IPC: 0.63129 cumulative IPC: 0.72320 (Simulation time: 0 hr 29 min 11 sec) 
Heartbeat CPU  0 instructions:  504000000 cycles:  602934650 heartbeat IPC: 0.63252 cumulative IPC: 0.72295 (Simulation time: 0 hr 29 min 15 sec) 
Heartbeat CPU  0 instructions:  505000000 cycles:  604521937 heartbeat IPC: 0.63001 cumulative IPC: 0.72268 (Simulation time: 0 hr 29 min 20 sec) 
Heartbeat CPU  0 instructions:  506000000 cycles:  606108991 heartbeat IPC: 0.63010 cumulative IPC: 0.72242 (Simulation time: 0 hr 29 min 24 sec) 
Heartbeat CPU  0 instructions:  507000002 cycles:  607695017 heartbeat IPC: 0.63051 cumulative IPC: 0.72216 (Simulation time: 0 hr 29 min 28 sec) 
Heartbeat CPU  0 instructions:  508000000 cycles:  609282950 heartbeat IPC: 0.62975 cumulative IPC: 0.72190 (Simulation time: 0 hr 29 min 32 sec) 
Heartbeat CPU  0 instructions:  509000003 cycles:  610863697 heartbeat IPC: 0.63261 cumulative IPC: 0.72165 (Simulation time: 0 hr 29 min 37 sec) 
Heartbeat CPU  0 instructions:  510000000 cycles:  612448097 heartbeat IPC: 0.63115 cumulative IPC: 0.72140 (Simulation time: 0 hr 29 min 41 sec) 
Heartbeat CPU  0 instructions:  511000002 cycles:  614030227 heartbeat IPC: 0.63206 cumulative IPC: 0.72115 (Simulation time: 0 hr 29 min 45 sec) 
[...]
scooby_state_440cfb|37|12 1,0,0,0,0,0,0,0,0,0,0,0,0,0,0,1,
scooby_state_441c5c|13|0 1,0,0,0,0,0,0,0,0,0,0,0,0,0,0,1,
scooby_state_4570f0|46|32 1,0,0,0,0,0,0,0,0,0,0,0,0,0,0,1,
scooby_state_43fe40|0|-45 1,0,0,0,0,0,0,0,0,0,0,0,0,0,0,1,
scooby_state_440b10|45|0 1,0,0,0,0,0,0,0,0,0,0,0,0,0,0,1,
scooby_state_441d11|17|-24 1,0,0,0,0,0,0,0,0,0,0,0,0,0,0,1,
scooby_state_441605|24|0 1,0,0,0,0,0,0,0,0,0,0,0,0,0,0,1,
scooby_state_441515|41|0 1,0,0,0,0,0,0,0,0,0,0,0,0,0,0,1,
scooby_state_4410f0|9|1 1,0,0,0,0,0,0,0,0,0,0,0,0,0,0,1,
scooby_state_44489e|46|2 1,0,0,0,0,0,0,0,0,0,0,0,0,0,0,1,
scooby_state_440bd7|1|-2 1,0,0,0,0,0,0,0,0,0,0,0,0,0,0,1,
scooby_state_440d25|59|22 1,0,0,0,0,0,0,0,0,0,0,0,0,0,0,1,
scooby_state_457176|32|-1 1,0,0,0,0,0,0,0,0,0,0,0,0,0,0,1,
scooby_state_441de0|10|-30 1,0,0,0,0,0,0,0,0,0,0,0,0,0,0,1,
scooby_state_43f75e|28|3 1,0,0,0,0,0,0,0,0,0,0,0,0,0,0,1,
scooby_state_4419df|48|29 1,0,0,0,0,0,0,0,0,0,0,0,0,0,0,1,
scooby_state_441de0|56|6 1,0,0,0,0,0,0,0,0,0,0,0,0,0,0,1,
scooby_state_441e07|56|6 1,0,0,0,0,0,0,0,0,0,0,0,0,0,0,1,
scooby_state_4409fd|16|10 1,0,0,0,0,0,0,0,0,0,0,0,0,0,0,1,
scooby_state_43ffbb|3|-48 1,0,0,0,0,0,0,0,0,0,0,0,0,0,0,1,
scooby_state_441d70|58|2 1,0,0,0,0,0,0,0,0,0,0,0,0,0,0,1,
scooby_state_441ac4|54|4 1,0,0,0,0,0,0,0,0,0,0,0,0,0,0,1,
scooby_state_457104|54|0 1,0,0,0,0,0,0,0,0,0,0,0,0,0,0,1,
scooby_state_440957|41|2 1,0,0,0,0,0,0,0,0,0,0,0,0,0,0,1,
scooby_state_440cfb|34|9 1,0,0,0,0,0,0,0,0,0,0,0,0,0,0,1,
scooby_state_43f75e|33|3 1,0,0,0,0,0,0,0,0,0,0,0,0,0,0,1,
scooby_state_43fdc2|43|14 1,0,0,0,0,0,0,0,0,0,0,0,0,0,0,1,
scooby_state_440b10|40|10 1,0,0,0,0,0,0,0,0,0,0,0,0,0,0,1,
scooby_state_441d37|60|3 1,0,0,0,0,0,0,0,0,0,0,0,0,0,0,1,
scooby_state_441bdf|4|0 1,0,0,0,0,0,0,0,0,0,0,0,0,0,0,1,
scooby_state_441e07|48|6 1,0,0,0,0,0,0,0,0,0,0,0,0,0,0,1,
scooby_state_441ae0|20|0 1,0,0,0,0,0,0,0,0,0,0,0,0,0,0,1,
scooby_state_440d25|59|10 1,0,0,0,0,0,0,0,0,0,0,0,0,0,0,1,
scooby_state_441c5c|20|0 1,0,0,0,0,0,0,0,0,0,0,0,0,0,0,1,
scooby_state_44143e|44|-1 1,0,0,0,0,0,0,0,0,0,0,0,0,0,0,1,
scooby_state_441abe|20|0 1,0,0,0,0,0,0,0,0,0,0,0,0,0,0,1,
scooby_state_444e70|33|1 1,0,0,0,0,0,0,0,0,0,0,0,0,0,0,1,
scooby_state_441bb6|55|9 1,0,0,0,0,0,0,0,0,0,0,0,0,0,0,1,
scooby_state_45716a|16|0 1,0,0,0,0,0,0,0,0,0,0,0,0,0,0,1,
scooby_state_444adc|2|-35 1,0,0,0,0,0,0,0,0,0,0,0,0,0,0,1,
scooby_state_43f75e|58|3 1,0,0,0,0,0,0,0,0,0,0,0,0,0,0,1,
scooby_state_44110e|33|1 1,0,0,0,0,0,0,0,0,0,0,0,0,0,0,1,
scooby_state_441d61|21|13 1,0,0,0,0,0,0,0,0,0,0,0,0,0,0,1,
scooby_state_440b10|41|11 1,0,0,0,0,0,0,0,0,0,0,0,0,0,0,1,
scooby_state_440d25|60|11 1,0,0,0,0,0,0,0,0,0,0,0,0,0,0,1,
scooby_state_441412|8|2 1,0,0,0,0,0,0,0,0,0,0,0,0,0,0,1,
scooby_state_441abe|48|2 1,0,0,0,0,0,0,0,0,0,0,0,0,0,0,1,
scooby_state_440947|22|0 1,0,0,0,0,0,0,0,0,0,0,0,0,0,0,1,
scooby_state_43f8d7|57|1 1,0,0,0,0,0,0,0,0,0,0,0,0,0,0,1,
scooby_state_4408eb|36|0 1,0,0,0,0,0,0,0,0,0,0,0,0,0,0,1,
scooby_state_43f604|61|58 1,0,0,0,0,0,0,0,0,0,0,0,0,0,0,1,
scooby_state_43f8b4|4|4 1,0,0,0,0,0,0,0,0,0,0,0,0,0,0,1,
scooby_state_441e75|8|4 1,0,0,0,0,0,0,0,0,0,0,0,0,0,0,1,
scooby_state_441ad9|46|7 1,0,0,0,0,0,0,0,0,0,0,0,0,0,0,1,
scooby_state_441bfd|56|-4 1,0,0,0,0,0,0,0,0,0,0,0,0,0,0,1,
scooby_state_4404c4|19|1 1,0,0,0,0,0,0,0,0,0,0,0,0,0,0,1,
scooby_state_441de0|58|3 1,0,0,0,0,0,0,0,0,0,0,0,0,0,0,1,
scooby_state_441d70|42|-16 1,0,0,0,0,0,0,0,0,0,0,0,0,0,0,1,
scooby_state_440cfb|35|10 1,0,0,0,0,0,0,0,0,0,0,0,0,0,0,1,
scooby_state_440c3d|18|-30 1,0,0,0,0,0,0,0,0,0,0,0,0,0,0,1,
scooby_state_45716a|24|-30 1,0,0,0,0,0,0,0,0,0,0,0,0,0,0,1,
scooby_state_4409a0|30|30 1,0,0,0,0,0,0,0,0,0,0,0,0,0,0,1,
scooby_state_440b10|40|19 1,0,0,0,0,0,0,0,0,0,0,0,0,0,0,1,
scooby_state_441ae0|36|2 1,0,0,0,0,0,0,0,0,0,0,0,0,0,0,1,
scooby_state_43f81e|21|-35 1,0,0,0,0,0,0,0,0,0,0,0,0,0,0,1,
scooby_state_440bc8|24|4 1,0,0,0,0,0,0,0,0,0,0,0,0,0,0,1,
scooby_state_4409a0|22|-18 1,0,0,0,0,0,0,0,0,0,0,0,0,0,0,1,
scooby_state_441bdf|32|4 1,0,0,0,0,0,0,0,0,0,0,0,0,0,0,1,
scooby_state_441d11|32|14 1,0,0,0,0,0,0,0,0,0,0,0,0,0,0,1,
scooby_state_43f67d|23|17 1,0,0,0,0,0,0,0,0,0,0,0,0,0,0,1,
scooby_state_444b9b|44|42 1,0,0,0,0,0,0,0,0,0,0,0,0,0,0,1,
scooby_state_440918|49|31 1,0,0,0,0,0,0,0,0,0,0,0,0,0,0,1,
scooby_state_440401|1|-59 0,0,1,0,0,0,0,0,0,0,0,0,0,0,0,1,
scooby_state_43f8b4|6|3 1,0,0,0,0,0,0,0,0,0,0,0,0,0,0,1,
scooby_state_441bfd|17|11 1,0,0,0,0,0,0,0,0,0,0,0,0,0,0,1,
scooby_state_43f75e|10|3 1,0,0,0,0,0,0,0,0,0,0,0,0,0,0,1,
scooby_state_440b10|45|36 1,0,0,0,0,0,0,0,0,0,0,0,0,0,0,1,
scooby_state_43f604|60|29 1,0,0,0,0,0,0,0,0,0,0,0,0,0,0,1,
scooby_state_43f8bd|49|-2 1,0,0,0,0,0,0,0,0,0,0,0,0,0,0,1,
scooby_state_4409a0|10|-35 1,0,0,0,0,0,0,0,0,0,0,0,0,0,0,1,
scooby_state_441c96|31|0 1,0,0,0,0,0,0,0,0,0,0,0,0,0,0,1,
scooby_state_457145|62|2 1,0,0,0,0,0,0,0,0,0,0,0,0,0,0,1,
scooby_state_440b78|39|-23 1,0,0,0,0,0,0,0,0,0,0,0,0,0,0,1,
scooby_state_444a54|18|-30 1,0,0,0,0,0,0,0,0,0,0,0,0,0,0,1,
scooby_state_440bd7|0|-8 1,0,0,0,0,0,0,0,0,0,0,0,0,0,0,1,
scooby_state_44107f|35|1 1,0,0,0,0,0,0,0,0,0,0,0,0,0,0,1,
scooby_state_4409a0|21|21 1,0,0,0,0,0,0,0,0,0,0,0,0,0,0,1,
scooby_state_43f8d2|26|0 1,0,0,0,0,0,0,0,0,0,0,0,0,0,0,1,
scooby_state_441d17|10|0 1,0,0,0,0,0,0,0,0,0,0,0,0,0,0,1,
scooby_state_457104|62|0 1,0,0,0,0,0,0,0,0,0,0,0,0,0,0,1,
scooby_state_457176|33|2 1,0,0,0,0,0,0,0,0,0,0,0,0,0,0,1,
scooby_state_43fe70|23|-29 1,0,0,0,0,0,0,0,0,0,0,0,0,0,0,1,
scooby_state_43f97b|28|3 1,0,0,0,0,0,0,0,0,0,0,0,0,0,0,1,
scooby_state_441901|36|1 1,0,0,0,0,0,0,0,0,0,0,0,0,0,0,1,
scooby_state_43f8b4|23|3 1,0,0,0,0,0,0,0,0,0,0,0,0,0,0,1,
scooby_state_43f0c3|3|1 1,0,0,0,0,0,0,0,0,0,0,0,0,0,0,1,
scooby_state_43f3af|18|-24 1,0,0,0,0,0,0,0,0,0,0,0,0,0,0,1,
scooby_state_441d11|24|2 1,0,0,0,0,0,0,0,0,0,0,0,0,0,0,1,
scooby_state_441e75|15|0 1,0,0,0,0,0,0,0,0,0,0,0,0,0,0,1,
scooby_state_440957|63|24 1,0,0,0,0,0,0,0,0,0,0,0,0,0,0,1,
scooby_state_441c11|34|33 1,0,0,0,0,0,0,0,0,0,0,0,0,0,0,1,
scooby_state_440bd7|0|-30 1,0,0,0,0,0,0,0,0,0,0,0,0,0,0,1,
scooby_state_4409fd|21|15 1,0,0,0,0,0,0,0,0,0,0,0,0,0,0,1,
scooby_state_43f8d7|50|-1 1,0,0,0,0,0,0,0,0,0,0,0,0,0,0,1,
scooby_state_440984|57|0 1,0,0,0,0,0,0,0,0,0,0,0,0,0,0,1,
scooby_state_441e75|19|0 1,0,0,0,0,0,0,0,0,0,0,0,0,0,0,1,
scooby_state_440401|18|1 1,0,0,0,0,0,0,0,0,0,0,0,0,0,0,1,
scooby_state_441de0|57|9 1,0,0,0,0,0,0,0,0,0,0,0,0,0,0,1,
scooby_state_440cfb|40|15 1,0,0,0,0,0,0,0,0,0,0,0,0,0,0,1,
scooby_state_440c34|25|0 1,0,0,0,0,0,0,0,0,0,0,0,0,0,0,1,
scooby_state_440c34|24|0 1,0,0,0,0,0,0,0,0,0,0,0,0,0,0,1,
scooby_state_43f604|51|2 1,0,0,0,0,0,0,0,0,0,0,0,0,0,0,1,
scooby_state_44048a|18|1 0,0,0,0,1,0,0,0,0,0,0,0,0,0,0,1,
scooby_state_440ade|6|4 1,0,0,0,0,0,0,0,0,0,0,0,0,0,0,1,
scooby_state_441abe|24|0 1,0,0,0,0,0,0,0,0,0,0,0,0,0,0,1,
scooby_state_440d25|55|14 1,0,0,0,0,0,0,0,0,0,0,0,0,0,0,1,
scooby_state_43f790|37|36 1,0,0,0,0,0,0,0,0,0,0,0,0,0,0,1,
scooby_state_440947|25|0 1,0,0,0,0,0,0,0,0,0,0,0,0,0,0,1,
scooby_state_43f8b4|7|3 1,0,0,0,0,0,0,0,0,0,0,0,0,0,0,1,
scooby_state_43fdc2|58|29 1,0,0,0,0,0,0,0,0,0,0,0,0,0,0,1,
scooby_state_440970|45|0 1,0,0,0,0,0,0,0,0,0,0,0,0,0,0,1,
scooby_state_440c3d|45|0 1,0,0,0,0,0,0,0,0,0,0,0,0,0,0,1,
scooby_state_457104|44|0 1,0,0,0,0,0,0,0,0,0,0,0,0,0,0,1,
scooby_state_457058|1|-7 1,0,0,0,0,0,0,0,0,0,0,0,0,0,0,1,
scooby_state_43f7f8|13|-46 1,0,0,0,0,0,0,0,0,0,0,0,0,0,0,1,
scooby_state_440a72|47|17 1,0,0,0,0,0,0,0,0,0,0,0,0,0,0,1,
scooby_state_444a54|16|-29 0,0,0,0,0,1,0,0,0,0,0,0,0,0,0,1,
scooby_state_440dba|46|29 1,0,0,0,0,0,0,0,0,0,0,0,0,0,0,1,
scooby_state_4409c1|39|1 1,0,0,0,0,0,0,0,0,0,0,0,0,0,0,1,
scooby_state_440d25|1|0 1,0,0,0,0,0,0,0,0,0,0,0,0,0,0,1,
scooby_state_43fda4|10|6 1,0,0,0,0,0,0,0,0,0,0,0,0,0,0,1,
scooby_state_457104|61|32 1,0,0,0,0,0,0,0,0,0,0,0,0,0,0,1,
scooby_state_4409a0|2|-44 1,0,0,0,0,0,0,0,0,0,0,0,0,0,0,1,
scooby_state_440c70|1|-29 1,0,0,0,0,0,0,0,0,0,0,0,0,0,0,1,
scooby_state_4409a0|2|1 1,0,0,0,0,0,0,0,0,0,0,0,0,0,0,1,
scooby_state_440725|18|-28 1,0,0,0,0,0,0,0,0,0,0,0,0,0,0,1,
scooby_state_43fd90|57|43 0,0,0,0,0,0,1,0,0,0,0,0,0,0,0,1,
scooby_state_43f7f8|11|-30 1,0,0,0,0,0,0,0,0,0,0,0,0,0,0,1,
scooby_state_441bb6|46|13 1,0,0,0,0,0,0,0,0,0,0,0,0,0,0,1,
scooby_state_441bc2|47|1 1,0,0,0,0,0,0,0,0,0,0,0,0,0,0,1,
scooby_state_440ade|7|0 1,0,0,0,0,0,0,0,0,0,0,0,0,0,0,1,
scooby_state_441bc2|11|-52 1,0,0,0,0,0,0,0,0,0,0,0,0,0,0,1,
scooby_state_440918|37|29 1,0,0,0,0,0,0,0,0,0,0,0,0,0,0,1,
scooby_state_440c3d|7|-30 1,0,0,0,0,0,0,0,0,0,0,0,0,0,0,1,
scooby_state_441abe|39|4 1,0,0,0,0,0,0,0,0,0,0,0,0,0,0,1,
scooby_state_444e8e|59|1 1,0,0,0,0,0,0,0,0,0,0,0,0,0,0,1,
scooby_state_440c3d|27|-30 1,0,0,0,0,0,0,0,0,0,0,0,0,0,0,1,
scooby_state_440aaa|58|31 1,0,0,0,0,0,0,0,0,0,0,0,0,0,0,1,
scooby_state_440bc8|47|28 1,0,0,0,0,0,0,0,0,0,0,0,0,0,0,1,
scooby_state_440d25|63|14 1,0,0,0,0,0,0,0,0,0,0,0,0,0,0,1,
scooby_state_45716a|27|-30 1,0,0,0,0,0,0,0,0,0,0,0,0,0,0,1,
scooby_state_43f6b4|32|-30 1,0,0,0,0,0,0,0,0,0,0,0,0,0,0,1,
scooby_state_440d25|63|26 1,0,0,0,0,0,0,0,0,0,0,0,0,0,0,1,
scooby_state_440bc8|44|25 1,0,0,0,0,0,0,0,0,0,0,0,0,0,0,1,
scooby_state_441ac4|12|4 1,0,0,0,0,0,0,0,0,0,0,0,0,0,0,1,
scooby_state_44039d|57|1 1,0,0,0,0,0,0,0,0,0,0,0,0,0,0,1,
scooby_state_441e75|41|4 1,0,0,0,0,0,0,0,0,0,0,0,0,0,0,1,
scooby_state_441bdf|41|4 1,0,0,0,0,0,0,0,0,0,0,0,0,0,0,1,
scooby_state_4409a0|19|19 1,0,0,0,0,0,0,0,0,0,0,0,0,0,0,1,
scooby_state_441abe|54|0 1,0,0,0,0,0,0,0,0,0,0,0,0,0,0,1,
scooby_state_441107|4|1 1,0,0,0,0,0,0,0,0,0,0,0,0,0,0,1,
scooby_state_441abe|50|2 1,0,0,0,0,0,0,0,0,0,0,0,0,0,0,1,
scooby_state_440947|38|0 1,0,0,0,0,0,0,0,0,0,0,0,0,0,0,1,
scooby_state_441d37|61|4 1,0,0,0,0,0,0,0,0,0,0,0,0,0,0,1,
scooby_state_444ac1|9|-30 1,0,0,0,0,0,0,0,0,0,0,0,0,0,0,1,
scooby_state_440cfb|37|32 1,0,0,0,0,0,0,0,0,0,0,0,0,0,0,1,
scooby_state_441c5c|63|4 1,0,0,0,0,0,0,0,0,0,0,0,0,0,0,1,
scooby_state_43f6b4|30|-32 1,0,0,0,0,0,0,0,0,0,0,0,0,0,0,1,
scooby_state_441e07|39|-3 1,0,0,0,0,0,0,0,0,0,0,0,0,0,0,1,
scooby_state_457104|53|0 1,0,0,0,0,0,0,0,0,0,0,0,0,0,0,1,
scooby_state_43f5f0|31|0 1,0,0,0,0,0,0,0,0,0,0,0,0,0,0,1,
scooby_state_441412|7|2 1,0,0,0,0,0,0,0,0,0,0,0,0,0,0,1,
scooby_state_4409fd|34|28 1,0,0,0,0,0,0,0,0,0,0,0,0,0,0,1,
scooby_state_440708|19|-16 1,0,0,0,0,0,0,0,0,0,0,0,0,0,0,1,
scooby_state_441ad9|28|-28 1,0,0,0,0,0,0,0,0,0,0,0,0,0,0,1,
scooby_state_441bdf|31|0 1,0,0,0,0,0,0,0,0,0,0,0,0,0,0,1,
scooby_state_440b9e|2|0 1,0,0,0,0,0,0,0,0,0,0,0,0,0,0,1,
scooby_state_440708|19|2 1,0,0,0,0,0,0,0,0,0,0,0,0,0,0,1,
scooby_state_440a5e|19|-24 1,0,0,0,0,0,0,0,0,0,0,0,0,0,0,1,
scooby_state_43ffbb|3|-32 1,0,0,0,0,0,0,0,0,0,0,0,0,0,0,1,
scooby_state_440b78|39|-3 1,0,0,0,0,0,0,0,0,0,0,0,0,0,0,1,
scooby_state_4409fd|15|9 1,0,0,0,0,0,0,0,0,0,0,0,0,0,0,1,
scooby_state_440957|43|4 1,0,0,0,0,0,0,0,0,0,0,0,0,0,0,1,
scooby_state_440e3b|36|-8 1,0,0,0,0,0,0,0,0,0,0,0,0,0,0,1,
scooby_state_440b78|39|-18 1,0,0,0,0,0,0,0,0,0,0,0,0,0,0,1,
scooby_state_43f9a5|53|33 1,0,0,0,0,0,0,0,0,0,0,0,0,0,0,1,
scooby_state_440b10|45|15 1,0,0,0,0,0,0,0,0,0,0,0,0,0,0,1,
scooby_state_441bdf|14|4 1,0,0,0,0,0,0,0,0,0,0,0,0,0,0,1,
scooby_state_440c34|4|4 1,0,0,0,0,0,0,0,0,0,0,0,0,0,0,1,
scooby_state_4406c2|27|1 1,0,0,0,0,0,0,0,0,0,0,0,0,0,0,1,
scooby_state_440b78|39|-16 1,0,0,0,0,0,0,0,0,0,0,0,0,0,0,1,
scooby_state_441412|28|2 1,0,0,0,0,0,0,0,0,0,0,0,0,0,0,1,
scooby_state_444dff|62|1 1,0,0,0,0,0,0,0,0,0,0,0,0,0,0,1,
scooby_state_43fda4|16|12 1,0,0,0,0,0,0,0,0,0,0,0,0,0,0,1,
scooby_state_440bc8|31|11 1,0,0,0,0,0,0,0,0,0,0,0,0,0,0,1,
scooby_state_43ff88|35|12 1,0,0,0,0,0,0,0,0,0,0,0,0,0,0,1,
scooby_state_441ac4|6|0 1,0,0,0,0,0,0,0,0,0,0,0,0,0,0,1,
scooby_state_43f4c6|19|1 1,0,0,0,0,0,0,0,0,0,0,0,0,0,0,1,
scooby_state_4409a0|2|-31 1,0,0,0,0,0,0,0,0,0,0,0,0,0,0,1,
scooby_state_457104|58|0 1,0,0,0,0,0,0,0,0,0,0,0,0,0,0,1,
scooby_state_440a5e|20|-29 1,0,0,0,0,0,0,0,0,0,0,0,0,0,0,1,
scooby_state_457104|58|32 1,0,0,0,0,0,0,0,0,0,0,0,0,0,0,1,
scooby_state_43ff88|37|14 1,0,0,0,0,0,0,0,0,0,0,0,0,0,0,1,
scooby_state_43fd90|43|43 0,0,0,0,0,0,1,0,0,0,0,0,0,0,0,1,
scooby_state_457104|43|29 1,0,0,0,0,0,0,0,0,0,0,0,0,0,0,1,
scooby_state_441ac4|10|4 1,0,0,0,0,0,0,0,0,0,0,0,0,0,0,1,
scooby_state_457104|39|32 1,0,0,0,0,0,0,0,0,0,0,0,0,0,0,1,
scooby_state_4571c0|7|4 1,0,0,0,0,0,0,0,0,0,0,0,0,0,0,1,
scooby_state_440af5|55|0 1,0,0,0,0,0,0,0,0,0,0,0,0,0,0,1,
scooby_state_4409a0|7|6 1,0,0,0,0,0,0,0,0,0,0,0,0,0,0,1,
scooby_state_440b78|39|-12 1,0,0,0,0,0,0,0,0,0,0,0,0,0,0,1,
scooby_state_440957|52|13 1,0,0,0,0,0,0,0,0,0,0,0,0,0,0,1,
scooby_state_441ae0|56|2 1,0,0,0,0,0,0,0,0,0,0,0,0,0,0,1,
scooby_state_4570f0|61|32 1,0,0,0,0,0,0,0,0,0,0,0,0,0,0,1,

scooby_action_0_deg_dist 0,57781,0,0,0,0,0,0,0,0,0,0,0,0,0,0,
scooby_action_4_deg_dist 0,5711,7,0,2,0,0,0,0,0,0,0,0,0,0,0,
scooby_action_3_deg_dist 0,12484,5260,0,15264,0,12590,0,0,0,0,0,0,0,0,0,
scooby_action_32_deg_dist 0,4374,0,0,0,0,0,0,0,0,0,0,0,0,0,0,
scooby_action_5_deg_dist 0,6559,493,0,1002,0,1196,0,0,0,0,0,0,0,0,0,
scooby_action_1_deg_dist 0,1815047,947899,0,856566,0,6697358,0,0,0,0,0,0,0,0,0,
scooby_action_30_deg_dist 0,182423,14,0,0,0,0,0,0,0,0,0,0,0,0,0,
scooby_action_-3_deg_dist 0,5094,0,0,0,0,0,0,0,0,0,0,0,0,0,0,
scooby_action_10_deg_dist 0,9839,2782,0,6867,0,8913,0,0,0,0,0,0,0,0,0,
scooby_action_-1_deg_dist 0,38482,0,0,0,0,0,0,0,0,0,0,0,0,0,0,
scooby_action_23_deg_dist 0,8474,2214,0,5045,0,11046,0,0,0,0,0,0,0,0,0,
scooby_action_-6_deg_dist 0,5178,0,0,0,0,0,0,0,0,0,0,0,0,0,0,
scooby_action_11_deg_dist 0,8259,1814,0,4375,0,10543,0,0,0,0,0,0,0,0,0,
scooby_action_22_deg_dist 0,4806,1,0,0,0,0,0,0,0,0,0,0,0,0,0,
scooby_action_12_deg_dist 0,10543,2483,0,5439,0,6695,0,0,0,0,0,0,0,0,0,

scooby_track_called 10780922
scooby_track_same_address 67595
scooby_track_evict 10713071

scooby_reward_demand_called 10780922
scooby_reward_demand_pt_not_found 1864372
scooby_reward_demand_pt_found 8916550
scooby_reward_demand_pt_found_total 8916550
scooby_reward_demand_has_reward 2196
scooby_reward_train_called 1558057
scooby_reward_assign_reward_called 10713305
scooby_reward_no_pref 57781
scooby_reward_incorrect 1500276
scooby_reward_correct_untimely 6978767
scooby_reward_correct_timely 1935587
scooby_reward_out_of_bounds 240894
scooby_reward_tracker_hit 0

scooby_reward_none_low_bw 57781
scooby_reward_none_high_bw 0
scooby_reward_incorrect_low_bw 1500276
scooby_reward_incorrect_high_bw 0
scooby_reward_correct_untimely_low_bw 6978767
scooby_reward_correct_untimely_high_bw 0
scooby_reward_correct_timely_low_bw 1935587
scooby_reward_correct_timely_high_bw 0
scooby_reward_out_of_bounds_low_bw 240894
scooby_reward_out_of_bounds_high_bw 0
scooby_reward_tracker_hit_low_bw 0
scooby_reward_tracker_hit_high_bw 0

scooby_reward_1 0,1336605,6940386,1830043,161576,0,
scooby_reward_3 0,7368,11587,8922,2136,0,
scooby_reward_4 0,4389,437,404,461,0,
scooby_reward_5 0,4872,1523,1083,811,0,
scooby_reward_10 0,4841,4166,14509,4689,0,
scooby_reward_11 0,4858,4843,10906,4375,0,
scooby_reward_12 0,7177,2017,10957,4997,0,
scooby_reward_22 0,2345,0,525,1934,0,
scooby_reward_23 0,6028,1299,10776,8673,0,
scooby_reward_30 0,84232,9523,40860,47822,0,
scooby_reward_32 0,1569,1,382,2422,0,
scooby_reward_-1 0,27837,2985,6220,541,0,
scooby_reward_-3 0,4105,0,0,147,0,
scooby_reward_-6 0,4050,0,0,310,0,
scooby_reward_0 57781,0,0,0,0,0,

scooby_train_called 10713070
scooby_train_compute_reward 1558057

scooby_register_fill_called 11098109
scooby_register_fill_set 2827855
scooby_register_fill_set_total 2827855

scooby_register_prefetch_hit_called 26093101
scooby_register_prefetch_hit_set 7416605
scooby_register_prefetch_hit_set_total 7416605

scooby_pref_issue_scooby 44727249

learning_engine_featurewise.action.called 10780922
learning_engine_featurewise.action.explore 19518
learning_engine_featurewise.action.exploit 10761404
learning_engine_featurewise.action.fallback 176091
learning_engine_featurewise.action.dyn_fallback_saved_bw 0
learning_engine_featurewise.action.dyn_fallback_saved_bw_acc 275447
learning_engine_featurewise.action.index_1_explored 1332
learning_engine_featurewise.action.index_1_exploited 10315538
learning_engine_featurewise.action.index_3_explored 1308
learning_engine_featurewise.action.index_3_exploited 44290
learning_engine_featurewise.action.index_4_explored 1314
learning_engine_featurewise.action.index_4_exploited 4406
learning_engine_featurewise.action.index_5_explored 1268
learning_engine_featurewise.action.index_5_exploited 7982
learning_engine_featurewise.action.index_10_explored 1336
learning_engine_featurewise.action.index_10_exploited 27065
learning_engine_featurewise.action.index_11_explored 1299
learning_engine_featurewise.action.index_11_exploited 23692
learning_engine_featurewise.action.index_12_explored 1358
learning_engine_featurewise.action.index_12_exploited 23802
learning_engine_featurewise.action.index_22_explored 1314
learning_engine_featurewise.action.index_22_exploited 3493
learning_engine_featurewise.action.index_23_explored 1265
learning_engine_featurewise.action.index_23_exploited 25514
learning_engine_featurewise.action.index_30_explored 1290
learning_engine_featurewise.action.index_30_exploited 181147
learning_engine_featurewise.action.index_32_explored 1255
learning_engine_featurewise.action.index_32_exploited 3119
learning_engine_featurewise.action.index_-1_explored 1307
learning_engine_featurewise.action.index_-1_exploited 37175
learning_engine_featurewise.action.index_-3_explored 1277
learning_engine_featurewise.action.index_-3_exploited 3817
learning_engine_featurewise.action.index_-6_explored 1287
learning_engine_featurewise.action.index_-6_exploited 3891
learning_engine_featurewise.action.index_0_explored 1308
learning_engine_featurewise.action.index_0_exploited 56473
learning_engine_featurewise.learn.called 10713070
learning_engine_featurewise.learn.su_skip_PC 0
learning_engine_featurewise.learn.su_skip_PC_Delta 0

learning_engine_featurewise.q_value_histogram.bucket_0 119879
learning_engine_featurewise.q_value_histogram.bucket_1 23406
learning_engine_featurewise.q_value_histogram.bucket_2 234967
learning_engine_featurewise.q_value_histogram.bucket_3 24817
learning_engine_featurewise.q_value_histogram.bucket_4 76868
learning_engine_featurewise.q_value_histogram.bucket_5 118893
learning_engine_featurewise.q_value_histogram.bucket_6 10162574
learning_engine_featurewise.q_value_histogram.bucket_7 0

learning_engine_featurewise.consensus.total 10761404
learning_engine_featurewise.consensus.feature_align_PC 10453862
learning_engine_featurewise.consensus.feature_align_PC_ratio 0.97
learning_engine_featurewise.consensus.feature_align_PC_Delta 10141467
learning_engine_featurewise.consensus.feature_align_PC_Delta_ratio 0.94
learning_engine_featurewise.consensus.feature_align_all 9977206
learning_engine_featurewise.consensus.feature_align_all_ratio 0.93

learning_engine_featurewise.feature_PC_min_weight 1000000.00000000
learning_engine_featurewise.feature_PC_max_weight 0.00000000
learning_engine_featurewise.feature_PC_Delta_min_weight 1000000.00000000
learning_engine_featurewise.feature_PC_Delta_max_weight 0.00000000
unique_pcs 575
unique_pages 159461
unique_trigger_pcs 256
total_bitmaps_seen 0
unique_bitmaps_seen 0

scooby_bw_epochs 2932499
scooby_bw_level_0 1605547
scooby_bw_level_1 654397
scooby_bw_level_2 305853
scooby_bw_level_3 366702

scooby_ipc_epochs 0
scooby_ipc_level_0 0
scooby_ipc_level_1 0
scooby_ipc_level_2 0
scooby_ipc_level_3 0

scooby_cache_acc_epochs 679343
scooby_cache_acc_level_0 359
scooby_cache_acc_level_1 6330
scooby_cache_acc_level_2 23094
scooby_cache_acc_level_3 34815
scooby_cache_acc_level_4 64616
scooby_cache_acc_level_5 85156
scooby_cache_acc_level_6 75698
scooby_cache_acc_level_7 73565
scooby_cache_acc_level_8 82480
scooby_cache_acc_level_9 233230

Channel_0_RQ_row_buffer_hit 5177896
Channel_0_RQ_row_buffer_miss 4178030
Channel_0_WQ_row_buffer_hit 535961
Channel_0_WQ_row_buffer_miss 2927563
Channel_0_WQ_full 0
Channel_0_dbus_congested 6911561

avg_congested_cycle 10

DRAM_bw_pochs 2932499
DRAM_bw_level_0 1605547
DRAM_bw_level_1 654397
DRAM_bw_level_2 305853
DRAM_bw_level_3 366702
