*************************************************
   ChampSim Multicore Out-of-Order Simulator
   Last compiled: Nov 21 2024 21:50:18
*************************************************
parsing config file: /home/shichen/os/compile-time-prefetcher-classification/ChampSim/config/bingo.ini

trace_0 /home/shichen/os/compile-time-prefetcher-classification/ChampSim/traces/459.GemsFDTD-1491B.champsimtrace.xz
adding L2C_PREFETCHER: Bingo
Initialize SHIP state
warmup_instructions 100000000
simulation_instructions 500000000
champsim_seed 273
measure_ipc 0
measure_ipc_epoch 1000
measure_dram_bw 1
measure_dram_bw_epoch 256
measure_cache_acc 1
measure_cache_acc_epoch 1024
l1d_perfect 0
l2c_perfect 0
llc_perfect 0
l1d_semi_perfect 0
l2c_semi_perfect 0
llc_semi_perfect 0
semi_perfect_cache_page_buffer_size 64

num_cpus 1
cpu_freq 4000
dram_io_freq 2400
page_size 4096
block_size 64
max_read_per_cycle 8
max_fill_per_cycle 1
dram_channels 1
log2_dram_channels 0
dram_ranks 1
dram_banks 8
dram_rows 65536
dram_columns 128
dram_row_size 8
dram_size 4096
dram_pages 1048576

fetch_width 6
decode_width 6
exec_width 4
lq_width 2
sq_width 2
retire_width 4
scheduler_size 128
branch_mispredict_penalty 20
rob_size 256
lq_size 72
sq_size 56
num_instr_destinations_sparc 4
num_instr_destinations 2
num_instr_sources 4

itlb_set 16
itlb_way 8
itlb_rq_size 16
itlb_wq_size 16
itlb_pq_size 0
itlb_mshr_size 8
itlb_latency 1

dtlb_set 16
dtlb_way 4
dtlb_rq_size 16
dtlb_wq_size 16
dtlb_pq_size 0
dtlb_mshr_size 8
dtlb_latency 1

stlb_set 128
stlb_way 12
stlb_rq_size 32
stlb_wq_size 32
stlb_pq_size 0
stlb_mshr_size 16
stlb_latency 8

l1i_size 32
l1i_set 64
l1i_way 8
l1i_rq_size 64
l1i_wq_size 64
l1i_pq_size 8
l1i_mshr_size 8
l1i_latency 1

l1d_size 32
l1d_set 64
l1d_way 8
l1d_rq_size 64
l1d_wq_size 64
l1d_pq_size 8
l1d_mshr_size 16
l1d_latency 4

l2c_size 256
l2c_set 512
l2c_way 8
l2c_rq_size 32
l2c_wq_size 32
l2c_pq_size 32
l2c_mshr_size 32
l2c_latency 10

llc_size 2048
llc_set 2048
llc_way 16
llc_rq_size 32
llc_wq_size 32
llc_pq_size 32
llc_mshr_size 64
llc_latency 20

dram_channel_width 8
dram_wq_size 64
dram_rq_size 64
tRP 15
tRCD 15
tCAS 12.5
dram_dbus_turn_around_time 30
dram_write_high_wm 56
dram_write_low_wm 48
min_dram_writes_per_switch 16
dram_mtps 2400
dram_dbus_return_time 13

bingo_region_size 2048
bingo_pattern_len 32
bingo_pc_width 16
bingo_min_addr_width 5
bingo_max_addr_width 16
bingo_ft_size 64
bingo_at_size 128
bingo_pht_size 4096
bingo_pht_ways 16
bingo_pf_streamer_size 128
bingo_debug_level 0
bingo_l1d_thresh 1.01
bingo_l2c_thresh 0.8
bingo_llc_thresh 0.05
bingo_pc_address_fill_level L2


Heartbeat CPU  0 instructions:    1000001 cycles:     440261 heartbeat IPC: 2.27138 cumulative IPC: 2.27138 (Simulation time: 0 hr 0 min 2 sec) 
Heartbeat CPU  0 instructions:    2000000 cycles:     881191 heartbeat IPC: 2.26793 cumulative IPC: 2.26966 (Simulation time: 0 hr 0 min 4 sec) 
Heartbeat CPU  0 instructions:    3000002 cycles:    1322113 heartbeat IPC: 2.26798 cumulative IPC: 2.26910 (Simulation time: 0 hr 0 min 5 sec) 
Heartbeat CPU  0 instructions:    4000000 cycles:    1762991 heartbeat IPC: 2.26820 cumulative IPC: 2.26887 (Simulation time: 0 hr 0 min 7 sec) 
Heartbeat CPU  0 instructions:    5000002 cycles:    2204101 heartbeat IPC: 2.26701 cumulative IPC: 2.26850 (Simulation time: 0 hr 0 min 9 sec) 
Heartbeat CPU  0 instructions:    6000000 cycles:    2644940 heartbeat IPC: 2.26840 cumulative IPC: 2.26848 (Simulation time: 0 hr 0 min 11 sec) 
Heartbeat CPU  0 instructions:    7000001 cycles:    3085882 heartbeat IPC: 2.26787 cumulative IPC: 2.26840 (Simulation time: 0 hr 0 min 13 sec) 
Heartbeat CPU  0 instructions:    8000000 cycles:    3526703 heartbeat IPC: 2.26849 cumulative IPC: 2.26841 (Simulation time: 0 hr 0 min 15 sec) 
Heartbeat CPU  0 instructions:    9000000 cycles:    3967625 heartbeat IPC: 2.26797 cumulative IPC: 2.26836 (Simulation time: 0 hr 0 min 17 sec) 
Heartbeat CPU  0 instructions:   10000003 cycles:    4408455 heartbeat IPC: 2.26846 cumulative IPC: 2.26837 (Simulation time: 0 hr 0 min 19 sec) 
Heartbeat CPU  0 instructions:   11000002 cycles:    4849415 heartbeat IPC: 2.26778 cumulative IPC: 2.26832 (Simulation time: 0 hr 0 min 21 sec) 
Heartbeat CPU  0 instructions:   12000000 cycles:    5290510 heartbeat IPC: 2.26708 cumulative IPC: 2.26821 (Simulation time: 0 hr 0 min 23 sec) 
Heartbeat CPU  0 instructions:   13000001 cycles:    5731429 heartbeat IPC: 2.26799 cumulative IPC: 2.26820 (Simulation time: 0 hr 0 min 25 sec) 
Heartbeat CPU  0 instructions:   14000002 cycles:    6172397 heartbeat IPC: 2.26774 cumulative IPC: 2.26816 (Simulation time: 0 hr 0 min 27 sec) 
Heartbeat CPU  0 instructions:   15000000 cycles:    6613295 heartbeat IPC: 2.26809 cumulative IPC: 2.26816 (Simulation time: 0 hr 0 min 29 sec) 
Heartbeat CPU  0 instructions:   16000000 cycles:    7054222 heartbeat IPC: 2.26795 cumulative IPC: 2.26815 (Simulation time: 0 hr 0 min 31 sec) 
Heartbeat CPU  0 instructions:   17000002 cycles:    7495045 heartbeat IPC: 2.26849 cumulative IPC: 2.26817 (Simulation time: 0 hr 0 min 33 sec) 
Heartbeat CPU  0 instructions:   18000002 cycles:    7935954 heartbeat IPC: 2.26804 cumulative IPC: 2.26816 (Simulation time: 0 hr 0 min 34 sec) 
Heartbeat CPU  0 instructions:   19000001 cycles:    8377003 heartbeat IPC: 2.26732 cumulative IPC: 2.26811 (Simulation time: 0 hr 0 min 36 sec) 
Heartbeat CPU  0 instructions:   20000000 cycles:    8818064 heartbeat IPC: 2.26726 cumulative IPC: 2.26807 (Simulation time: 0 hr 0 min 38 sec) 
Heartbeat CPU  0 instructions:   21000000 cycles:    9259032 heartbeat IPC: 2.26774 cumulative IPC: 2.26806 (Simulation time: 0 hr 0 min 40 sec) 
Heartbeat CPU  0 instructions:   22000003 cycles:    9699889 heartbeat IPC: 2.26832 cumulative IPC: 2.26807 (Simulation time: 0 hr 0 min 42 sec) 
Heartbeat CPU  0 instructions:   23000001 cycles:   10140708 heartbeat IPC: 2.26850 cumulative IPC: 2.26809 (Simulation time: 0 hr 0 min 44 sec) 
Heartbeat CPU  0 instructions:   24000000 cycles:   10581566 heartbeat IPC: 2.26830 cumulative IPC: 2.26810 (Simulation time: 0 hr 0 min 46 sec) 
Heartbeat CPU  0 instructions:   25000003 cycles:   11022510 heartbeat IPC: 2.26787 cumulative IPC: 2.26809 (Simulation time: 0 hr 0 min 48 sec) 
Heartbeat CPU  0 instructions:   26000001 cycles:   11463551 heartbeat IPC: 2.26736 cumulative IPC: 2.26806 (Simulation time: 0 hr 0 min 50 sec) 
Heartbeat CPU  0 instructions:   27000000 cycles:   11904480 heartbeat IPC: 2.26794 cumulative IPC: 2.26805 (Simulation time: 0 hr 0 min 52 sec) 
Heartbeat CPU  0 instructions:   28000000 cycles:   12345335 heartbeat IPC: 2.26832 cumulative IPC: 2.26806 (Simulation time: 0 hr 0 min 54 sec) 
Heartbeat CPU  0 instructions:   29000003 cycles:   12786355 heartbeat IPC: 2.26748 cumulative IPC: 2.26804 (Simulation time: 0 hr 0 min 56 sec) 
Heartbeat CPU  0 instructions:   30000003 cycles:   13227277 heartbeat IPC: 2.26797 cumulative IPC: 2.26804 (Simulation time: 0 hr 0 min 58 sec) 
Heartbeat CPU  0 instructions:   31000003 cycles:   13668064 heartbeat IPC: 2.26867 cumulative IPC: 2.26806 (Simulation time: 0 hr 0 min 59 sec) 
Heartbeat CPU  0 instructions:   32000000 cycles:   14109011 heartbeat IPC: 2.26784 cumulative IPC: 2.26805 (Simulation time: 0 hr 1 min 1 sec) 
Heartbeat CPU  0 instructions:   33000002 cycles:   14549905 heartbeat IPC: 2.26812 cumulative IPC: 2.26806 (Simulation time: 0 hr 1 min 3 sec) 
Heartbeat CPU  0 instructions:   34000001 cycles:   14990988 heartbeat IPC: 2.26714 cumulative IPC: 2.26803 (Simulation time: 0 hr 1 min 5 sec) 
Heartbeat CPU  0 instructions:   35000000 cycles:   15431971 heartbeat IPC: 2.26766 cumulative IPC: 2.26802 (Simulation time: 0 hr 1 min 7 sec) 
Heartbeat CPU  0 instructions:   36000000 cycles:   15872955 heartbeat IPC: 2.26766 cumulative IPC: 2.26801 (Simulation time: 0 hr 1 min 9 sec) 
Heartbeat CPU  0 instructions:   37000003 cycles:   16313777 heartbeat IPC: 2.26850 cumulative IPC: 2.26802 (Simulation time: 0 hr 1 min 11 sec) 
Heartbeat CPU  0 instructions:   38000003 cycles:   16754733 heartbeat IPC: 2.26780 cumulative IPC: 2.26802 (Simulation time: 0 hr 1 min 13 sec) 
Heartbeat CPU  0 instructions:   39000002 cycles:   17195495 heartbeat IPC: 2.26880 cumulative IPC: 2.26804 (Simulation time: 0 hr 1 min 15 sec) 
Heartbeat CPU  0 instructions:   40000000 cycles:   17636361 heartbeat IPC: 2.26826 cumulative IPC: 2.26804 (Simulation time: 0 hr 1 min 17 sec) 
Heartbeat CPU  0 instructions:   41000001 cycles:   18077638 heartbeat IPC: 2.26615 cumulative IPC: 2.26800 (Simulation time: 0 hr 1 min 19 sec) 
Heartbeat CPU  0 instructions:   42000000 cycles:   18518702 heartbeat IPC: 2.26724 cumulative IPC: 2.26798 (Simulation time: 0 hr 1 min 20 sec) 
Heartbeat CPU  0 instructions:   43000003 cycles:   18959685 heartbeat IPC: 2.26767 cumulative IPC: 2.26797 (Simulation time: 0 hr 1 min 22 sec) 
Heartbeat CPU  0 instructions:   44000000 cycles:   19400558 heartbeat IPC: 2.26822 cumulative IPC: 2.26798 (Simulation time: 0 hr 1 min 24 sec) 
Heartbeat CPU  0 instructions:   45000002 cycles:   19841497 heartbeat IPC: 2.26789 cumulative IPC: 2.26797 (Simulation time: 0 hr 1 min 26 sec) 
Heartbeat CPU  0 instructions:   46000003 cycles:   20282325 heartbeat IPC: 2.26846 cumulative IPC: 2.26798 (Simulation time: 0 hr 1 min 28 sec) 
Heartbeat CPU  0 instructions:   47000001 cycles:   20723170 heartbeat IPC: 2.26837 cumulative IPC: 2.26799 (Simulation time: 0 hr 1 min 30 sec) 
Heartbeat CPU  0 instructions:   48000000 cycles:   21164122 heartbeat IPC: 2.26782 cumulative IPC: 2.26799 (Simulation time: 0 hr 1 min 32 sec) 
Heartbeat CPU  0 instructions:   49000001 cycles:   21605171 heartbeat IPC: 2.26732 cumulative IPC: 2.26798 (Simulation time: 0 hr 1 min 34 sec) 
Heartbeat CPU  0 instructions:   50000003 cycles:   22046207 heartbeat IPC: 2.26739 cumulative IPC: 2.26796 (Simulation time: 0 hr 1 min 36 sec) 
Heartbeat CPU  0 instructions:   51000002 cycles:   22487024 heartbeat IPC: 2.26851 cumulative IPC: 2.26797 (Simulation time: 0 hr 1 min 38 sec) 
Heartbeat CPU  0 instructions:   52000000 cycles:   22927964 heartbeat IPC: 2.26788 cumulative IPC: 2.26797 (Simulation time: 0 hr 1 min 40 sec) 
Heartbeat CPU  0 instructions:   53000001 cycles:   23368828 heartbeat IPC: 2.26828 cumulative IPC: 2.26798 (Simulation time: 0 hr 1 min 42 sec) 
Heartbeat CPU  0 instructions:   54000002 cycles:   23809713 heartbeat IPC: 2.26817 cumulative IPC: 2.26798 (Simulation time: 0 hr 1 min 43 sec) 
Heartbeat CPU  0 instructions:   55000002 cycles:   24250671 heartbeat IPC: 2.26779 cumulative IPC: 2.26798 (Simulation time: 0 hr 1 min 45 sec) 
Heartbeat CPU  0 instructions:   56000000 cycles:   24691728 heartbeat IPC: 2.26728 cumulative IPC: 2.26797 (Simulation time: 0 hr 1 min 47 sec) 
Heartbeat CPU  0 instructions:   57000000 cycles:   25132847 heartbeat IPC: 2.26696 cumulative IPC: 2.26795 (Simulation time: 0 hr 1 min 49 sec) 
Heartbeat CPU  0 instructions:   58000003 cycles:   25573727 heartbeat IPC: 2.26820 cumulative IPC: 2.26795 (Simulation time: 0 hr 1 min 51 sec) 
Heartbeat CPU  0 instructions:   59000001 cycles:   26014742 heartbeat IPC: 2.26749 cumulative IPC: 2.26794 (Simulation time: 0 hr 1 min 53 sec) 
Heartbeat CPU  0 instructions:   60000000 cycles:   26455475 heartbeat IPC: 2.26895 cumulative IPC: 2.26796 (Simulation time: 0 hr 1 min 55 sec) 
Heartbeat CPU  0 instructions:   61000001 cycles:   26896434 heartbeat IPC: 2.26779 cumulative IPC: 2.26796 (Simulation time: 0 hr 1 min 57 sec) 
Heartbeat CPU  0 instructions:   62000001 cycles:   27337345 heartbeat IPC: 2.26803 cumulative IPC: 2.26796 (Simulation time: 0 hr 1 min 59 sec) 
Heartbeat CPU  0 instructions:   63000000 cycles:   27778308 heartbeat IPC: 2.26776 cumulative IPC: 2.26796 (Simulation time: 0 hr 2 min 1 sec) 
Heartbeat CPU  0 instructions:   64000000 cycles:   28219359 heartbeat IPC: 2.26731 cumulative IPC: 2.26795 (Simulation time: 0 hr 2 min 3 sec) 
Heartbeat CPU  0 instructions:   65000003 cycles:   28660315 heartbeat IPC: 2.26781 cumulative IPC: 2.26794 (Simulation time: 0 hr 2 min 4 sec) 
Heartbeat CPU  0 instructions:   66000002 cycles:   29101130 heartbeat IPC: 2.26852 cumulative IPC: 2.26795 (Simulation time: 0 hr 2 min 6 sec) 
Heartbeat CPU  0 instructions:   67000001 cycles:   29541975 heartbeat IPC: 2.26837 cumulative IPC: 2.26796 (Simulation time: 0 hr 2 min 8 sec) 
Heartbeat CPU  0 instructions:   68000000 cycles:   29982881 heartbeat IPC: 2.26805 cumulative IPC: 2.26796 (Simulation time: 0 hr 2 min 10 sec) 
Heartbeat CPU  0 instructions:   69000000 cycles:   30423735 heartbeat IPC: 2.26832 cumulative IPC: 2.26797 (Simulation time: 0 hr 2 min 12 sec) 
Heartbeat CPU  0 instructions:   70000001 cycles:   30864669 heartbeat IPC: 2.26792 cumulative IPC: 2.26797 (Simulation time: 0 hr 2 min 14 sec) 
Heartbeat CPU  0 instructions:   71000000 cycles:   31305714 heartbeat IPC: 2.26734 cumulative IPC: 2.26796 (Simulation time: 0 hr 2 min 16 sec) 
Heartbeat CPU  0 instructions:   72000000 cycles:   31746693 heartbeat IPC: 2.26768 cumulative IPC: 2.26795 (Simulation time: 0 hr 2 min 18 sec) 
Heartbeat CPU  0 instructions:   73000003 cycles:   32187541 heartbeat IPC: 2.26836 cumulative IPC: 2.26796 (Simulation time: 0 hr 2 min 20 sec) 
Heartbeat CPU  0 instructions:   74000001 cycles:   32628439 heartbeat IPC: 2.26809 cumulative IPC: 2.26796 (Simulation time: 0 hr 2 min 22 sec) 
Heartbeat CPU  0 instructions:   75000000 cycles:   33069353 heartbeat IPC: 2.26801 cumulative IPC: 2.26796 (Simulation time: 0 hr 2 min 24 sec) 
Heartbeat CPU  0 instructions:   76000000 cycles:   33510220 heartbeat IPC: 2.26826 cumulative IPC: 2.26796 (Simulation time: 0 hr 2 min 26 sec) 
Heartbeat CPU  0 instructions:   77000003 cycles:   33951137 heartbeat IPC: 2.26801 cumulative IPC: 2.26797 (Simulation time: 0 hr 2 min 27 sec) 
Heartbeat CPU  0 instructions:   78000002 cycles:   34392119 heartbeat IPC: 2.26766 cumulative IPC: 2.26796 (Simulation time: 0 hr 2 min 29 sec) 
Heartbeat CPU  0 instructions:   79000003 cycles:   34833130 heartbeat IPC: 2.26752 cumulative IPC: 2.26796 (Simulation time: 0 hr 2 min 31 sec) 
Heartbeat CPU  0 instructions:   80000000 cycles:   35274023 heartbeat IPC: 2.26812 cumulative IPC: 2.26796 (Simulation time: 0 hr 2 min 33 sec) 
Heartbeat CPU  0 instructions:   81000002 cycles:   35715061 heartbeat IPC: 2.26738 cumulative IPC: 2.26795 (Simulation time: 0 hr 2 min 35 sec) 
Heartbeat CPU  0 instructions:   82000001 cycles:   36155919 heartbeat IPC: 2.26830 cumulative IPC: 2.26796 (Simulation time: 0 hr 2 min 37 sec) 
Heartbeat CPU  0 instructions:   83000003 cycles:   36596759 heartbeat IPC: 2.26840 cumulative IPC: 2.26796 (Simulation time: 0 hr 2 min 39 sec) 
Heartbeat CPU  0 instructions:   84000000 cycles:   37037652 heartbeat IPC: 2.26812 cumulative IPC: 2.26796 (Simulation time: 0 hr 2 min 41 sec) 
Heartbeat CPU  0 instructions:   85000003 cycles:   37478684 heartbeat IPC: 2.26742 cumulative IPC: 2.26796 (Simulation time: 0 hr 2 min 43 sec) 
Heartbeat CPU  0 instructions:   86000003 cycles:   37919764 heartbeat IPC: 2.26716 cumulative IPC: 2.26795 (Simulation time: 0 hr 2 min 45 sec) 
Heartbeat CPU  0 instructions:   87000003 cycles:   38360690 heartbeat IPC: 2.26795 cumulative IPC: 2.26795 (Simulation time: 0 hr 2 min 47 sec) 
Heartbeat CPU  0 instructions:   88000000 cycles:   38801559 heartbeat IPC: 2.26824 cumulative IPC: 2.26795 (Simulation time: 0 hr 2 min 49 sec) 
Heartbeat CPU  0 instructions:   89000001 cycles:   39242398 heartbeat IPC: 2.26840 cumulative IPC: 2.26796 (Simulation time: 0 hr 2 min 50 sec) 
Heartbeat CPU  0 instructions:   90000000 cycles:   39683379 heartbeat IPC: 2.26767 cumulative IPC: 2.26795 (Simulation time: 0 hr 2 min 52 sec) 
Heartbeat CPU  0 instructions:   91000001 cycles:   40124212 heartbeat IPC: 2.26844 cumulative IPC: 2.26796 (Simulation time: 0 hr 2 min 54 sec) 
Heartbeat CPU  0 instructions:   92000000 cycles:   40565091 heartbeat IPC: 2.26819 cumulative IPC: 2.26796 (Simulation time: 0 hr 2 min 56 sec) 
Heartbeat CPU  0 instructions:   93000002 cycles:   41006139 heartbeat IPC: 2.26733 cumulative IPC: 2.26795 (Simulation time: 0 hr 2 min 58 sec) 
Heartbeat CPU  0 instructions:   94000003 cycles:   41447186 heartbeat IPC: 2.26733 cumulative IPC: 2.26795 (Simulation time: 0 hr 3 min 0 sec) 
Heartbeat CPU  0 instructions:   95000002 cycles:   41888125 heartbeat IPC: 2.26789 cumulative IPC: 2.26795 (Simulation time: 0 hr 3 min 2 sec) 
Heartbeat CPU  0 instructions:   96000000 cycles:   42328907 heartbeat IPC: 2.26869 cumulative IPC: 2.26795 (Simulation time: 0 hr 3 min 4 sec) 
Heartbeat CPU  0 instructions:   97000001 cycles:   42769835 heartbeat IPC: 2.26795 cumulative IPC: 2.26795 (Simulation time: 0 hr 3 min 6 sec) 
Heartbeat CPU  0 instructions:   98000003 cycles:   43210705 heartbeat IPC: 2.26825 cumulative IPC: 2.26796 (Simulation time: 0 hr 3 min 8 sec) 
Heartbeat CPU  0 instructions:   99000002 cycles:   43651618 heartbeat IPC: 2.26802 cumulative IPC: 2.26796 (Simulation time: 0 hr 3 min 10 sec) 
Heartbeat CPU  0 instructions:  100000000 cycles:   44092612 heartbeat IPC: 2.26760 cumulative IPC: 2.26795 (Simulation time: 0 hr 3 min 11 sec) 

Warmup complete CPU  0 instructions:  100000004 cycles:   44092616 (Simulation time: 0 hr 3 min 11 sec) 

Heartbeat CPU  0 instructions:  101000001 cycles:   45067697 heartbeat IPC: 1.02555 cumulative IPC: 1.02555 (Simulation time: 0 hr 3 min 14 sec) 
Heartbeat CPU  0 instructions:  102000001 cycles:   46115037 heartbeat IPC: 0.95480 cumulative IPC: 0.98891 (Simulation time: 0 hr 3 min 17 sec) 
Heartbeat CPU  0 instructions:  103000003 cycles:   47098327 heartbeat IPC: 1.01700 cumulative IPC: 0.99810 (Simulation time: 0 hr 3 min 19 sec) 
Heartbeat CPU  0 instructions:  104000000 cycles:   48116864 heartbeat IPC: 0.98180 cumulative IPC: 0.99397 (Simulation time: 0 hr 3 min 22 sec) 
Heartbeat CPU  0 instructions:  105000000 cycles:   49149888 heartbeat IPC: 0.96803 cumulative IPC: 0.98867 (Simulation time: 0 hr 3 min 25 sec) 
Heartbeat CPU  0 instructions:  106000000 cycles:   50129672 heartbeat IPC: 1.02063 cumulative IPC: 0.99386 (Simulation time: 0 hr 3 min 28 sec) 
Heartbeat CPU  0 instructions:  107000001 cycles:   51150245 heartbeat IPC: 0.97984 cumulative IPC: 0.99183 (Simulation time: 0 hr 3 min 30 sec) 
Heartbeat CPU  0 instructions:  108000000 cycles:   52107869 heartbeat IPC: 1.04425 cumulative IPC: 0.99810 (Simulation time: 0 hr 3 min 33 sec) 
Heartbeat CPU  0 instructions:  109000000 cycles:   53141610 heartbeat IPC: 0.96736 cumulative IPC: 0.99459 (Simulation time: 0 hr 3 min 36 sec) 
Heartbeat CPU  0 instructions:  110000001 cycles:   54096898 heartbeat IPC: 1.04681 cumulative IPC: 0.99957 (Simulation time: 0 hr 3 min 38 sec) 
Heartbeat CPU  0 instructions:  111000000 cycles:   55179882 heartbeat IPC: 0.92337 cumulative IPC: 0.99213 (Simulation time: 0 hr 3 min 41 sec) 
Heartbeat CPU  0 instructions:  112000000 cycles:   56129607 heartbeat IPC: 1.05294 cumulative IPC: 0.99693 (Simulation time: 0 hr 3 min 44 sec) 
Heartbeat CPU  0 instructions:  113000003 cycles:   57182226 heartbeat IPC: 0.95001 cumulative IPC: 0.99315 (Simulation time: 0 hr 3 min 46 sec) 
Heartbeat CPU  0 instructions:  114000002 cycles:   58161304 heartbeat IPC: 1.02137 cumulative IPC: 0.99512 (Simulation time: 0 hr 3 min 49 sec) 
Heartbeat CPU  0 instructions:  115000000 cycles:   59173463 heartbeat IPC: 0.98799 cumulative IPC: 0.99464 (Simulation time: 0 hr 3 min 52 sec) 
Heartbeat CPU  0 instructions:  116000000 cycles:   60195521 heartbeat IPC: 0.97842 cumulative IPC: 0.99361 (Simulation time: 0 hr 3 min 54 sec) 
Heartbeat CPU  0 instructions:  117000002 cycles:   61191007 heartbeat IPC: 1.00454 cumulative IPC: 0.99425 (Simulation time: 0 hr 3 min 57 sec) 
Heartbeat CPU  0 instructions:  118000002 cycles:   62247324 heartbeat IPC: 0.94669 cumulative IPC: 0.99148 (Simulation time: 0 hr 4 min 0 sec) 
Heartbeat CPU  0 instructions:  119000003 cycles:   63233652 heartbeat IPC: 1.01386 cumulative IPC: 0.99263 (Simulation time: 0 hr 4 min 2 sec) 
Heartbeat CPU  0 instructions:  120000000 cycles:   64295423 heartbeat IPC: 0.94182 cumulative IPC: 0.98996 (Simulation time: 0 hr 4 min 5 sec) 
Heartbeat CPU  0 instructions:  121000002 cycles:   65240129 heartbeat IPC: 1.05853 cumulative IPC: 0.99302 (Simulation time: 0 hr 4 min 8 sec) 
Heartbeat CPU  0 instructions:  122000003 cycles:   66297636 heartbeat IPC: 0.94562 cumulative IPC: 0.99077 (Simulation time: 0 hr 4 min 11 sec) 
Heartbeat CPU  0 instructions:  123000002 cycles:   67263125 heartbeat IPC: 1.03574 cumulative IPC: 0.99264 (Simulation time: 0 hr 4 min 13 sec) 
Heartbeat CPU  0 instructions:  124000000 cycles:   68297638 heartbeat IPC: 0.96664 cumulative IPC: 0.99153 (Simulation time: 0 hr 4 min 16 sec) 
Heartbeat CPU  0 instructions:  125000003 cycles:   69306433 heartbeat IPC: 0.99128 cumulative IPC: 0.99152 (Simulation time: 0 hr 4 min 19 sec) 
Heartbeat CPU  0 instructions:  126000000 cycles:   70304816 heartbeat IPC: 1.00162 cumulative IPC: 0.99190 (Simulation time: 0 hr 4 min 21 sec) 
Heartbeat CPU  0 instructions:  127000000 cycles:   71332528 heartbeat IPC: 0.97304 cumulative IPC: 0.99119 (Simulation time: 0 hr 4 min 24 sec) 
Heartbeat CPU  0 instructions:  128000000 cycles:   72308534 heartbeat IPC: 1.02458 cumulative IPC: 0.99235 (Simulation time: 0 hr 4 min 27 sec) 
Heartbeat CPU  0 instructions:  129000002 cycles:   73346262 heartbeat IPC: 0.96365 cumulative IPC: 0.99133 (Simulation time: 0 hr 4 min 29 sec) 
Heartbeat CPU  0 instructions:  130000000 cycles:   74339064 heartbeat IPC: 1.00725 cumulative IPC: 0.99185 (Simulation time: 0 hr 4 min 32 sec) 
Heartbeat CPU  0 instructions:  131000001 cycles:   75407102 heartbeat IPC: 0.93630 cumulative IPC: 0.98996 (Simulation time: 0 hr 4 min 35 sec) 
Heartbeat CPU  0 instructions:  132000000 cycles:   76384449 heartbeat IPC: 1.02318 cumulative IPC: 0.99096 (Simulation time: 0 hr 4 min 37 sec) 
Heartbeat CPU  0 instructions:  133000002 cycles:   77439611 heartbeat IPC: 0.94772 cumulative IPC: 0.98959 (Simulation time: 0 hr 4 min 40 sec) 
Heartbeat CPU  0 instructions:  134000003 cycles:   78428651 heartbeat IPC: 1.01108 cumulative IPC: 0.99021 (Simulation time: 0 hr 4 min 43 sec) 
Heartbeat CPU  0 instructions:  135000002 cycles:   79453062 heartbeat IPC: 0.97617 cumulative IPC: 0.98981 (Simulation time: 0 hr 4 min 45 sec) 
Heartbeat CPU  0 instructions:  136000000 cycles:   80464266 heartbeat IPC: 0.98892 cumulative IPC: 0.98978 (Simulation time: 0 hr 4 min 48 sec) 
Heartbeat CPU  0 instructions:  137000003 cycles:   81453058 heartbeat IPC: 1.01134 cumulative IPC: 0.99035 (Simulation time: 0 hr 4 min 51 sec) 
Heartbeat CPU  0 instructions:  138000000 cycles:   82516010 heartbeat IPC: 0.94077 cumulative IPC: 0.98898 (Simulation time: 0 hr 4 min 53 sec) 
Heartbeat CPU  0 instructions:  139000000 cycles:   83478858 heartbeat IPC: 1.03859 cumulative IPC: 0.99019 (Simulation time: 0 hr 4 min 56 sec) 
Heartbeat CPU  0 instructions:  140000000 cycles:   84542879 heartbeat IPC: 0.93983 cumulative IPC: 0.98887 (Simulation time: 0 hr 4 min 59 sec) 
Heartbeat CPU  0 instructions:  141000002 cycles:   85534728 heartbeat IPC: 1.00822 cumulative IPC: 0.98933 (Simulation time: 0 hr 5 min 2 sec) 
Heartbeat CPU  0 instructions:  142000000 cycles:   86604066 heartbeat IPC: 0.93516 cumulative IPC: 0.98797 (Simulation time: 0 hr 5 min 4 sec) 
Heartbeat CPU  0 instructions:  143000001 cycles:   87560570 heartbeat IPC: 1.04548 cumulative IPC: 0.98923 (Simulation time: 0 hr 5 min 7 sec) 
Heartbeat CPU  0 instructions:  144000000 cycles:   88583336 heartbeat IPC: 0.97774 cumulative IPC: 0.98897 (Simulation time: 0 hr 5 min 10 sec) 
Heartbeat CPU  0 instructions:  145000000 cycles:   89560974 heartbeat IPC: 1.02287 cumulative IPC: 0.98970 (Simulation time: 0 hr 5 min 12 sec) 
Heartbeat CPU  0 instructions:  146000001 cycles:   90561946 heartbeat IPC: 0.99903 cumulative IPC: 0.98990 (Simulation time: 0 hr 5 min 15 sec) 
Heartbeat CPU  0 instructions:  147000000 cycles:   91554223 heartbeat IPC: 1.00778 cumulative IPC: 0.99027 (Simulation time: 0 hr 5 min 18 sec) 
Heartbeat CPU  0 instructions:  148000000 cycles:   92550363 heartbeat IPC: 1.00387 cumulative IPC: 0.99055 (Simulation time: 0 hr 5 min 20 sec) 
Heartbeat CPU  0 instructions:  149000001 cycles:   93587548 heartbeat IPC: 0.96415 cumulative IPC: 0.99000 (Simulation time: 0 hr 5 min 23 sec) 
Heartbeat CPU  0 instructions:  150000000 cycles:   94545493 heartbeat IPC: 1.04390 cumulative IPC: 0.99102 (Simulation time: 0 hr 5 min 26 sec) 
Heartbeat CPU  0 instructions:  151000000 cycles:   95605470 heartbeat IPC: 0.94342 cumulative IPC: 0.99004 (Simulation time: 0 hr 5 min 28 sec) 
Heartbeat CPU  0 instructions:  152000000 cycles:   96559588 heartbeat IPC: 1.04809 cumulative IPC: 0.99110 (Simulation time: 0 hr 5 min 31 sec) 
Heartbeat CPU  0 instructions:  153000000 cycles:   97612105 heartbeat IPC: 0.95010 cumulative IPC: 0.99029 (Simulation time: 0 hr 5 min 34 sec) 
Heartbeat CPU  0 instructions:  154000000 cycles:   98564968 heartbeat IPC: 1.04947 cumulative IPC: 0.99133 (Simulation time: 0 hr 5 min 36 sec) 
Heartbeat CPU  0 instructions:  155000003 cycles:   99608564 heartbeat IPC: 0.95823 cumulative IPC: 0.99071 (Simulation time: 0 hr 5 min 39 sec) 
Heartbeat CPU  0 instructions:  156000000 cycles:  100616783 heartbeat IPC: 0.99185 cumulative IPC: 0.99073 (Simulation time: 0 hr 5 min 42 sec) 
Heartbeat CPU  0 instructions:  157000002 cycles:  101626817 heartbeat IPC: 0.99007 cumulative IPC: 0.99072 (Simulation time: 0 hr 5 min 45 sec) 
Heartbeat CPU  0 instructions:  158000001 cycles:  102664328 heartbeat IPC: 0.96384 cumulative IPC: 0.99024 (Simulation time: 0 hr 5 min 47 sec) 
Heartbeat CPU  0 instructions:  159000000 cycles:  103629549 heartbeat IPC: 1.03603 cumulative IPC: 0.99098 (Simulation time: 0 hr 5 min 50 sec) 
Heartbeat CPU  0 instructions:  160000000 cycles:  104681047 heartbeat IPC: 0.95102 cumulative IPC: 0.99029 (Simulation time: 0 hr 5 min 53 sec) 
Heartbeat CPU  0 instructions:  161000003 cycles:  105650495 heartbeat IPC: 1.03152 cumulative IPC: 0.99094 (Simulation time: 0 hr 5 min 55 sec) 
Heartbeat CPU  0 instructions:  162000002 cycles:  106724075 heartbeat IPC: 0.93146 cumulative IPC: 0.98992 (Simulation time: 0 hr 5 min 58 sec) 
Heartbeat CPU  0 instructions:  163000000 cycles:  107679455 heartbeat IPC: 1.04670 cumulative IPC: 0.99077 (Simulation time: 0 hr 6 min 1 sec) 
Heartbeat CPU  0 instructions:  164000000 cycles:  108763824 heartbeat IPC: 0.92220 cumulative IPC: 0.98962 (Simulation time: 0 hr 6 min 3 sec) 
Heartbeat CPU  0 instructions:  165000002 cycles:  109781324 heartbeat IPC: 0.98280 cumulative IPC: 0.98952 (Simulation time: 0 hr 6 min 6 sec) 
Heartbeat CPU  0 instructions:  166000000 cycles:  110819727 heartbeat IPC: 0.96302 cumulative IPC: 0.98910 (Simulation time: 0 hr 6 min 9 sec) 
Heartbeat CPU  0 instructions:  167000003 cycles:  111836094 heartbeat IPC: 0.98390 cumulative IPC: 0.98903 (Simulation time: 0 hr 6 min 11 sec) 
Heartbeat CPU  0 instructions:  168000000 cycles:  112831962 heartbeat IPC: 1.00415 cumulative IPC: 0.98924 (Simulation time: 0 hr 6 min 14 sec) 
Heartbeat CPU  0 instructions:  169000000 cycles:  113851236 heartbeat IPC: 0.98109 cumulative IPC: 0.98913 (Simulation time: 0 hr 6 min 17 sec) 
Heartbeat CPU  0 instructions:  170000003 cycles:  114816298 heartbeat IPC: 1.03621 cumulative IPC: 0.98977 (Simulation time: 0 hr 6 min 19 sec) 
Heartbeat CPU  0 instructions:  171000002 cycles:  115859570 heartbeat IPC: 0.95852 cumulative IPC: 0.98931 (Simulation time: 0 hr 6 min 22 sec) 
Heartbeat CPU  0 instructions:  172000000 cycles:  116832812 heartbeat IPC: 1.02749 cumulative IPC: 0.98982 (Simulation time: 0 hr 6 min 25 sec) 
Heartbeat CPU  0 instructions:  173000001 cycles:  117889102 heartbeat IPC: 0.94671 cumulative IPC: 0.98921 (Simulation time: 0 hr 6 min 27 sec) 
Heartbeat CPU  0 instructions:  174000002 cycles:  118880877 heartbeat IPC: 1.00829 cumulative IPC: 0.98946 (Simulation time: 0 hr 6 min 30 sec) 
Heartbeat CPU  0 instructions:  175000002 cycles:  119913606 heartbeat IPC: 0.96831 cumulative IPC: 0.98917 (Simulation time: 0 hr 6 min 33 sec) 
Heartbeat CPU  0 instructions:  176000000 cycles:  120900445 heartbeat IPC: 1.01333 cumulative IPC: 0.98948 (Simulation time: 0 hr 6 min 36 sec) 
Heartbeat CPU  0 instructions:  177000002 cycles:  121894298 heartbeat IPC: 1.00619 cumulative IPC: 0.98970 (Simulation time: 0 hr 6 min 38 sec) 
Heartbeat CPU  0 instructions:  178000002 cycles:  122931181 heartbeat IPC: 0.96443 cumulative IPC: 0.98936 (Simulation time: 0 hr 6 min 41 sec) 
Heartbeat CPU  0 instructions:  179000000 cycles:  123904289 heartbeat IPC: 1.02763 cumulative IPC: 0.98983 (Simulation time: 0 hr 6 min 44 sec) 
Heartbeat CPU  0 instructions:  180000000 cycles:  124966044 heartbeat IPC: 0.94184 cumulative IPC: 0.98920 (Simulation time: 0 hr 6 min 46 sec) 
Heartbeat CPU  0 instructions:  181000000 cycles:  125919330 heartbeat IPC: 1.04900 cumulative IPC: 0.98990 (Simulation time: 0 hr 6 min 49 sec) 
Heartbeat CPU  0 instructions:  182000003 cycles:  126995721 heartbeat IPC: 0.92903 cumulative IPC: 0.98911 (Simulation time: 0 hr 6 min 52 sec) 
Heartbeat CPU  0 instructions:  183000002 cycles:  127968953 heartbeat IPC: 1.02750 cumulative IPC: 0.98955 (Simulation time: 0 hr 6 min 54 sec) 
Heartbeat CPU  0 instructions:  184000000 cycles:  129029266 heartbeat IPC: 0.94312 cumulative IPC: 0.98897 (Simulation time: 0 hr 6 min 57 sec) 
Heartbeat CPU  0 instructions:  185000003 cycles:  129986999 heartbeat IPC: 1.04414 cumulative IPC: 0.98959 (Simulation time: 0 hr 7 min 0 sec) 
Heartbeat CPU  0 instructions:  186000002 cycles:  131007602 heartbeat IPC: 0.97981 cumulative IPC: 0.98947 (Simulation time: 0 hr 7 min 2 sec) 
Heartbeat CPU  0 instructions:  187000000 cycles:  131995223 heartbeat IPC: 1.01253 cumulative IPC: 0.98973 (Simulation time: 0 hr 7 min 5 sec) 
Heartbeat CPU  0 instructions:  188000000 cycles:  132997870 heartbeat IPC: 0.99736 cumulative IPC: 0.98982 (Simulation time: 0 hr 7 min 8 sec) 
Heartbeat CPU  0 instructions:  189000001 cycles:  134042968 heartbeat IPC: 0.95685 cumulative IPC: 0.98943 (Simulation time: 0 hr 7 min 10 sec) 
Heartbeat CPU  0 instructions:  190000002 cycles:  135030610 heartbeat IPC: 1.01251 cumulative IPC: 0.98969 (Simulation time: 0 hr 7 min 13 sec) 
Heartbeat CPU  0 instructions:  191000001 cycles:  136086600 heartbeat IPC: 0.94698 cumulative IPC: 0.98920 (Simulation time: 0 hr 7 min 16 sec) 
Heartbeat CPU  0 instructions:  192000000 cycles:  137051042 heartbeat IPC: 1.03687 cumulative IPC: 0.98969 (Simulation time: 0 hr 7 min 19 sec) 
Heartbeat CPU  0 instructions:  193000000 cycles:  138089357 heartbeat IPC: 0.96310 cumulative IPC: 0.98940 (Simulation time: 0 hr 7 min 21 sec) 
Heartbeat CPU  0 instructions:  194000001 cycles:  139048057 heartbeat IPC: 1.04308 cumulative IPC: 0.98994 (Simulation time: 0 hr 7 min 24 sec) 
Heartbeat CPU  0 instructions:  195000003 cycles:  140078441 heartbeat IPC: 0.97051 cumulative IPC: 0.98973 (Simulation time: 0 hr 7 min 27 sec) 
Heartbeat CPU  0 instructions:  196000000 cycles:  141049958 heartbeat IPC: 1.02931 cumulative IPC: 0.99013 (Simulation time: 0 hr 7 min 29 sec) 
Heartbeat CPU  0 instructions:  197000001 cycles:  142073882 heartbeat IPC: 0.97664 cumulative IPC: 0.98999 (Simulation time: 0 hr 7 min 32 sec) 
Heartbeat CPU  0 instructions:  198000003 cycles:  143089577 heartbeat IPC: 0.98455 cumulative IPC: 0.98993 (Simulation time: 0 hr 7 min 35 sec) 
Heartbeat CPU  0 instructions:  199000000 cycles:  144086087 heartbeat IPC: 1.00350 cumulative IPC: 0.99006 (Simulation time: 0 hr 7 min 37 sec) 
Heartbeat CPU  0 instructions:  200000000 cycles:  145129284 heartbeat IPC: 0.95859 cumulative IPC: 0.98974 (Simulation time: 0 hr 7 min 40 sec) 
Heartbeat CPU  0 instructions:  201000003 cycles:  146092017 heartbeat IPC: 1.03871 cumulative IPC: 0.99020 (Simulation time: 0 hr 7 min 43 sec) 
Heartbeat CPU  0 instructions:  202000002 cycles:  147149377 heartbeat IPC: 0.94575 cumulative IPC: 0.98975 (Simulation time: 0 hr 7 min 45 sec) 
Heartbeat CPU  0 instructions:  203000003 cycles:  148115866 heartbeat IPC: 1.03467 cumulative IPC: 0.99016 (Simulation time: 0 hr 7 min 48 sec) 
Heartbeat CPU  0 instructions:  204000000 cycles:  149169562 heartbeat IPC: 0.94904 cumulative IPC: 0.98975 (Simulation time: 0 hr 7 min 51 sec) 
Heartbeat CPU  0 instructions:  205000002 cycles:  150173073 heartbeat IPC: 0.99650 cumulative IPC: 0.98981 (Simulation time: 0 hr 7 min 53 sec) 
Heartbeat CPU  0 instructions:  206000001 cycles:  151198128 heartbeat IPC: 0.97556 cumulative IPC: 0.98968 (Simulation time: 0 hr 7 min 56 sec) 
Heartbeat CPU  0 instructions:  207000003 cycles:  152217431 heartbeat IPC: 0.98106 cumulative IPC: 0.98960 (Simulation time: 0 hr 7 min 59 sec) 
Heartbeat CPU  0 instructions:  208000000 cycles:  153209296 heartbeat IPC: 1.00820 cumulative IPC: 0.98977 (Simulation time: 0 hr 8 min 1 sec) 
Heartbeat CPU  0 instructions:  209000003 cycles:  154269276 heartbeat IPC: 0.94342 cumulative IPC: 0.98932 (Simulation time: 0 hr 8 min 4 sec) 
Heartbeat CPU  0 instructions:  210000002 cycles:  155253314 heartbeat IPC: 1.01622 cumulative IPC: 0.98956 (Simulation time: 0 hr 8 min 7 sec) 
Heartbeat CPU  0 instructions:  211000002 cycles:  156283366 heartbeat IPC: 0.97082 cumulative IPC: 0.98939 (Simulation time: 0 hr 8 min 10 sec) 
Heartbeat CPU  0 instructions:  212000000 cycles:  157263165 heartbeat IPC: 1.02062 cumulative IPC: 0.98966 (Simulation time: 0 hr 8 min 12 sec) 
Heartbeat CPU  0 instructions:  213000003 cycles:  158342212 heartbeat IPC: 0.92675 cumulative IPC: 0.98906 (Simulation time: 0 hr 8 min 15 sec) 
Heartbeat CPU  0 instructions:  214000002 cycles:  159319581 heartbeat IPC: 1.02315 cumulative IPC: 0.98935 (Simulation time: 0 hr 8 min 18 sec) 
Heartbeat CPU  0 instructions:  215000003 cycles:  160365739 heartbeat IPC: 0.95588 cumulative IPC: 0.98905 (Simulation time: 0 hr 8 min 20 sec) 
Heartbeat CPU  0 instructions:  216000000 cycles:  161352328 heartbeat IPC: 1.01359 cumulative IPC: 0.98926 (Simulation time: 0 hr 8 min 23 sec) 
Heartbeat CPU  0 instructions:  217000002 cycles:  162348472 heartbeat IPC: 1.00387 cumulative IPC: 0.98938 (Simulation time: 0 hr 8 min 26 sec) 
Heartbeat CPU  0 instructions:  218000003 cycles:  163369998 heartbeat IPC: 0.97893 cumulative IPC: 0.98929 (Simulation time: 0 hr 8 min 28 sec) 
Heartbeat CPU  0 instructions:  219000001 cycles:  164377772 heartbeat IPC: 0.99228 cumulative IPC: 0.98932 (Simulation time: 0 hr 8 min 31 sec) 
Heartbeat CPU  0 instructions:  220000000 cycles:  165424881 heartbeat IPC: 0.95501 cumulative IPC: 0.98902 (Simulation time: 0 hr 8 min 34 sec) 
Heartbeat CPU  0 instructions:  221000001 cycles:  166399486 heartbeat IPC: 1.02606 cumulative IPC: 0.98931 (Simulation time: 0 hr 8 min 36 sec) 
Heartbeat CPU  0 instructions:  222000001 cycles:  167460072 heartbeat IPC: 0.94287 cumulative IPC: 0.98892 (Simulation time: 0 hr 8 min 39 sec) 
Heartbeat CPU  0 instructions:  223000002 cycles:  168422639 heartbeat IPC: 1.03889 cumulative IPC: 0.98930 (Simulation time: 0 hr 8 min 42 sec) 
Heartbeat CPU  0 instructions:  224000000 cycles:  169472030 heartbeat IPC: 0.95293 cumulative IPC: 0.98900 (Simulation time: 0 hr 8 min 45 sec) 
Heartbeat CPU  0 instructions:  225000001 cycles:  170442020 heartbeat IPC: 1.03094 cumulative IPC: 0.98932 (Simulation time: 0 hr 8 min 47 sec) 
Heartbeat CPU  0 instructions:  226000000 cycles:  171481827 heartbeat IPC: 0.96172 cumulative IPC: 0.98909 (Simulation time: 0 hr 8 min 50 sec) 
Heartbeat CPU  0 instructions:  227000001 cycles:  172492284 heartbeat IPC: 0.98965 cumulative IPC: 0.98910 (Simulation time: 0 hr 8 min 53 sec) 
Heartbeat CPU  0 instructions:  228000000 cycles:  173521719 heartbeat IPC: 0.97141 cumulative IPC: 0.98896 (Simulation time: 0 hr 8 min 55 sec) 
Heartbeat CPU  0 instructions:  229000002 cycles:  174536069 heartbeat IPC: 0.98585 cumulative IPC: 0.98893 (Simulation time: 0 hr 8 min 58 sec) 
Heartbeat CPU  0 instructions:  230000003 cycles:  175511537 heartbeat IPC: 1.02515 cumulative IPC: 0.98920 (Simulation time: 0 hr 9 min 1 sec) 
Heartbeat CPU  0 instructions:  231000001 cycles:  176540520 heartbeat IPC: 0.97183 cumulative IPC: 0.98907 (Simulation time: 0 hr 9 min 3 sec) 
Heartbeat CPU  0 instructions:  232000000 cycles:  177505581 heartbeat IPC: 1.03620 cumulative IPC: 0.98941 (Simulation time: 0 hr 9 min 6 sec) 
Heartbeat CPU  0 instructions:  233000001 cycles:  178560427 heartbeat IPC: 0.94801 cumulative IPC: 0.98908 (Simulation time: 0 hr 9 min 9 sec) 
Heartbeat CPU  0 instructions:  234000003 cycles:  179527150 heartbeat IPC: 1.03442 cumulative IPC: 0.98941 (Simulation time: 0 hr 9 min 11 sec) 
Heartbeat CPU  0 instructions:  235000000 cycles:  180564954 heartbeat IPC: 0.96357 cumulative IPC: 0.98921 (Simulation time: 0 hr 9 min 14 sec) 
Heartbeat CPU  0 instructions:  236000000 cycles:  181534241 heartbeat IPC: 1.03169 cumulative IPC: 0.98951 (Simulation time: 0 hr 9 min 17 sec) 
Heartbeat CPU  0 instructions:  237000002 cycles:  182555068 heartbeat IPC: 0.97960 cumulative IPC: 0.98944 (Simulation time: 0 hr 9 min 19 sec) 
Heartbeat CPU  0 instructions:  238000000 cycles:  183544375 heartbeat IPC: 1.01081 cumulative IPC: 0.98959 (Simulation time: 0 hr 9 min 22 sec) 
Heartbeat CPU  0 instructions:  239000001 cycles:  184526107 heartbeat IPC: 1.01861 cumulative IPC: 0.98979 (Simulation time: 0 hr 9 min 25 sec) 
Heartbeat CPU  0 instructions:  240000000 cycles:  185549080 heartbeat IPC: 0.97754 cumulative IPC: 0.98970 (Simulation time: 0 hr 9 min 27 sec) 
Heartbeat CPU  0 instructions:  241000000 cycles:  186505667 heartbeat IPC: 1.04538 cumulative IPC: 0.99008 (Simulation time: 0 hr 9 min 30 sec) 
Heartbeat CPU  0 instructions:  242000001 cycles:  187545817 heartbeat IPC: 0.96140 cumulative IPC: 0.98987 (Simulation time: 0 hr 9 min 33 sec) 
Heartbeat CPU  0 instructions:  243000001 cycles:  188500924 heartbeat IPC: 1.04700 cumulative IPC: 0.99025 (Simulation time: 0 hr 9 min 35 sec) 
Heartbeat CPU  0 instructions:  244000000 cycles:  189548806 heartbeat IPC: 0.95430 cumulative IPC: 0.98999 (Simulation time: 0 hr 9 min 38 sec) 
Heartbeat CPU  0 instructions:  245000001 cycles:  190511366 heartbeat IPC: 1.03890 cumulative IPC: 0.99031 (Simulation time: 0 hr 9 min 41 sec) 
Heartbeat CPU  0 instructions:  246000003 cycles:  191545679 heartbeat IPC: 0.96683 cumulative IPC: 0.99015 (Simulation time: 0 hr 9 min 44 sec) 
Heartbeat CPU  0 instructions:  247000000 cycles:  192533941 heartbeat IPC: 1.01187 cumulative IPC: 0.99029 (Simulation time: 0 hr 9 min 46 sec) 
Heartbeat CPU  0 instructions:  248000000 cycles:  193536921 heartbeat IPC: 0.99703 cumulative IPC: 0.99034 (Simulation time: 0 hr 9 min 49 sec) 
Heartbeat CPU  0 instructions:  249000003 cycles:  194605457 heartbeat IPC: 0.93586 cumulative IPC: 0.98995 (Simulation time: 0 hr 9 min 52 sec) 
Heartbeat CPU  0 instructions:  250000000 cycles:  195589848 heartbeat IPC: 1.01585 cumulative IPC: 0.99012 (Simulation time: 0 hr 9 min 54 sec) 
Heartbeat CPU  0 instructions:  251000003 cycles:  196656349 heartbeat IPC: 0.93765 cumulative IPC: 0.98975 (Simulation time: 0 hr 9 min 57 sec) 
Heartbeat CPU  0 instructions:  252000000 cycles:  197621575 heartbeat IPC: 1.03602 cumulative IPC: 0.99004 (Simulation time: 0 hr 10 min 0 sec) 
Heartbeat CPU  0 instructions:  253000002 cycles:  198671936 heartbeat IPC: 0.95206 cumulative IPC: 0.98978 (Simulation time: 0 hr 10 min 2 sec) 
Heartbeat CPU  0 instructions:  254000001 cycles:  199617240 heartbeat IPC: 1.05786 cumulative IPC: 0.99020 (Simulation time: 0 hr 10 min 5 sec) 
Heartbeat CPU  0 instructions:  255000001 cycles:  200684521 heartbeat IPC: 0.93696 cumulative IPC: 0.98983 (Simulation time: 0 hr 10 min 8 sec) 
Heartbeat CPU  0 instructions:  256000000 cycles:  201639072 heartbeat IPC: 1.04761 cumulative IPC: 0.99018 (Simulation time: 0 hr 10 min 10 sec) 
Heartbeat CPU  0 instructions:  257000003 cycles:  202678781 heartbeat IPC: 0.96181 cumulative IPC: 0.99000 (Simulation time: 0 hr 10 min 13 sec) 
Heartbeat CPU  0 instructions:  258000001 cycles:  203696782 heartbeat IPC: 0.98232 cumulative IPC: 0.98995 (Simulation time: 0 hr 10 min 16 sec) 
Heartbeat CPU  0 instructions:  259000002 cycles:  204706060 heartbeat IPC: 0.99081 cumulative IPC: 0.98995 (Simulation time: 0 hr 10 min 18 sec) 
Heartbeat CPU  0 instructions:  260000000 cycles:  205741794 heartbeat IPC: 0.96550 cumulative IPC: 0.98980 (Simulation time: 0 hr 10 min 21 sec) 
Heartbeat CPU  0 instructions:  261000001 cycles:  206740170 heartbeat IPC: 1.00163 cumulative IPC: 0.98987 (Simulation time: 0 hr 10 min 24 sec) 
Heartbeat CPU  0 instructions:  262000000 cycles:  207777327 heartbeat IPC: 0.96417 cumulative IPC: 0.98971 (Simulation time: 0 hr 10 min 27 sec) 
Heartbeat CPU  0 instructions:  263000001 cycles:  208720112 heartbeat IPC: 1.06069 cumulative IPC: 0.99011 (Simulation time: 0 hr 10 min 29 sec) 
Heartbeat CPU  0 instructions:  264000000 cycles:  209775747 heartbeat IPC: 0.94730 cumulative IPC: 0.98984 (Simulation time: 0 hr 10 min 32 sec) 
Heartbeat CPU  0 instructions:  265000002 cycles:  210713605 heartbeat IPC: 1.06626 cumulative IPC: 0.99027 (Simulation time: 0 hr 10 min 34 sec) 
Heartbeat CPU  0 instructions:  266000003 cycles:  211777660 heartbeat IPC: 0.93980 cumulative IPC: 0.98995 (Simulation time: 0 hr 10 min 37 sec) 
Heartbeat CPU  0 instructions:  267000003 cycles:  212793892 heartbeat IPC: 0.98403 cumulative IPC: 0.98992 (Simulation time: 0 hr 10 min 40 sec) 
Heartbeat CPU  0 instructions:  268000000 cycles:  213823716 heartbeat IPC: 0.97104 cumulative IPC: 0.98980 (Simulation time: 0 hr 10 min 43 sec) 
Heartbeat CPU  0 instructions:  269000001 cycles:  214839059 heartbeat IPC: 0.98489 cumulative IPC: 0.98977 (Simulation time: 0 hr 10 min 45 sec) 
Heartbeat CPU  0 instructions:  270000003 cycles:  215821187 heartbeat IPC: 1.01820 cumulative IPC: 0.98993 (Simulation time: 0 hr 10 min 48 sec) 
Heartbeat CPU  0 instructions:  271000000 cycles:  216860698 heartbeat IPC: 0.96199 cumulative IPC: 0.98977 (Simulation time: 0 hr 10 min 51 sec) 
Heartbeat CPU  0 instructions:  272000000 cycles:  217842416 heartbeat IPC: 1.01862 cumulative IPC: 0.98993 (Simulation time: 0 hr 10 min 53 sec) 
Heartbeat CPU  0 instructions:  273000001 cycles:  218895364 heartbeat IPC: 0.94972 cumulative IPC: 0.98969 (Simulation time: 0 hr 10 min 56 sec) 
Heartbeat CPU  0 instructions:  274000002 cycles:  219848962 heartbeat IPC: 1.04866 cumulative IPC: 0.99001 (Simulation time: 0 hr 10 min 59 sec) 
Heartbeat CPU  0 instructions:  275000000 cycles:  220888812 heartbeat IPC: 0.96168 cumulative IPC: 0.98984 (Simulation time: 0 hr 11 min 1 sec) 
Heartbeat CPU  0 instructions:  276000000 cycles:  221848480 heartbeat IPC: 1.04203 cumulative IPC: 0.99012 (Simulation time: 0 hr 11 min 4 sec) 
Heartbeat CPU  0 instructions:  277000000 cycles:  222907124 heartbeat IPC: 0.94460 cumulative IPC: 0.98985 (Simulation time: 0 hr 11 min 7 sec) 
Heartbeat CPU  0 instructions:  278000000 cycles:  223898357 heartbeat IPC: 1.00884 cumulative IPC: 0.98996 (Simulation time: 0 hr 11 min 9 sec) 
Heartbeat CPU  0 instructions:  279000003 cycles:  224904925 heartbeat IPC: 0.99348 cumulative IPC: 0.98998 (Simulation time: 0 hr 11 min 12 sec) 
Heartbeat CPU  0 instructions:  280000000 cycles:  225941385 heartbeat IPC: 0.96482 cumulative IPC: 0.98983 (Simulation time: 0 hr 11 min 15 sec) 
Heartbeat CPU  0 instructions:  281000000 cycles:  226940719 heartbeat IPC: 1.00067 cumulative IPC: 0.98989 (Simulation time: 0 hr 11 min 18 sec) 
Heartbeat CPU  0 instructions:  282000003 cycles:  227995948 heartbeat IPC: 0.94766 cumulative IPC: 0.98965 (Simulation time: 0 hr 11 min 20 sec) 
Heartbeat CPU  0 instructions:  283000000 cycles:  228962799 heartbeat IPC: 1.03428 cumulative IPC: 0.98988 (Simulation time: 0 hr 11 min 23 sec) 
Heartbeat CPU  0 instructions:  284000000 cycles:  230048656 heartbeat IPC: 0.92093 cumulative IPC: 0.98948 (Simulation time: 0 hr 11 min 26 sec) 
Heartbeat CPU  0 instructions:  285000003 cycles:  231002203 heartbeat IPC: 1.04872 cumulative IPC: 0.98978 (Simulation time: 0 hr 11 min 28 sec) 
Heartbeat CPU  0 instructions:  286000002 cycles:  232048493 heartbeat IPC: 0.95576 cumulative IPC: 0.98959 (Simulation time: 0 hr 11 min 31 sec) 
Heartbeat CPU  0 instructions:  287000000 cycles:  233002964 heartbeat IPC: 1.04770 cumulative IPC: 0.98989 (Simulation time: 0 hr 11 min 34 sec) 
Heartbeat CPU  0 instructions:  288000000 cycles:  234042957 heartbeat IPC: 0.96154 cumulative IPC: 0.98973 (Simulation time: 0 hr 11 min 36 sec) 
Heartbeat CPU  0 instructions:  289000000 cycles:  235045496 heartbeat IPC: 0.99747 cumulative IPC: 0.98977 (Simulation time: 0 hr 11 min 39 sec) 
Heartbeat CPU  0 instructions:  290000000 cycles:  236074582 heartbeat IPC: 0.97174 cumulative IPC: 0.98968 (Simulation time: 0 hr 11 min 42 sec) 
Heartbeat CPU  0 instructions:  291000003 cycles:  237107718 heartbeat IPC: 0.96793 cumulative IPC: 0.98956 (Simulation time: 0 hr 11 min 44 sec) 
Heartbeat CPU  0 instructions:  292000000 cycles:  238098416 heartbeat IPC: 1.00939 cumulative IPC: 0.98966 (Simulation time: 0 hr 11 min 47 sec) 
Heartbeat CPU  0 instructions:  293000002 cycles:  239176333 heartbeat IPC: 0.92772 cumulative IPC: 0.98932 (Simulation time: 0 hr 11 min 50 sec) 
Heartbeat CPU  0 instructions:  294000003 cycles:  240144785 heartbeat IPC: 1.03258 cumulative IPC: 0.98953 (Simulation time: 0 hr 11 min 52 sec) 
Heartbeat CPU  0 instructions:  295000000 cycles:  241204743 heartbeat IPC: 0.94343 cumulative IPC: 0.98928 (Simulation time: 0 hr 11 min 55 sec) 
Heartbeat CPU  0 instructions:  296000000 cycles:  242143692 heartbeat IPC: 1.06502 cumulative IPC: 0.98964 (Simulation time: 0 hr 11 min 58 sec) 
Heartbeat CPU  0 instructions:  297000003 cycles:  243203063 heartbeat IPC: 0.94396 cumulative IPC: 0.98940 (Simulation time: 0 hr 12 min 0 sec) 
Heartbeat CPU  0 instructions:  298000002 cycles:  244217036 heartbeat IPC: 0.98622 cumulative IPC: 0.98938 (Simulation time: 0 hr 12 min 3 sec) 
Heartbeat CPU  0 instructions:  299000002 cycles:  245776920 heartbeat IPC: 0.64107 cumulative IPC: 0.98669 (Simulation time: 0 hr 12 min 7 sec) 
Heartbeat CPU  0 instructions:  300000000 cycles:  247418279 heartbeat IPC: 0.60925 cumulative IPC: 0.98364 (Simulation time: 0 hr 12 min 11 sec) 
Heartbeat CPU  0 instructions:  301000000 cycles:  249057774 heartbeat IPC: 0.60994 cumulative IPC: 0.98065 (Simulation time: 0 hr 12 min 14 sec) 
Heartbeat CPU  0 instructions:  302000003 cycles:  250690891 heartbeat IPC: 0.61233 cumulative IPC: 0.97774 (Simulation time: 0 hr 12 min 18 sec) 
Heartbeat CPU  0 instructions:  303000002 cycles:  252319924 heartbeat IPC: 0.61386 cumulative IPC: 0.97490 (Simulation time: 0 hr 12 min 22 sec) 
Heartbeat CPU  0 instructions:  304000000 cycles:  253944560 heartbeat IPC: 0.61552 cumulative IPC: 0.97211 (Simulation time: 0 hr 12 min 26 sec) 
Heartbeat CPU  0 instructions:  305000000 cycles:  255575131 heartbeat IPC: 0.61328 cumulative IPC: 0.96935 (Simulation time: 0 hr 12 min 30 sec) 
Heartbeat CPU  0 instructions:  306000001 cycles:  257202270 heartbeat IPC: 0.61458 cumulative IPC: 0.96664 (Simulation time: 0 hr 12 min 34 sec) 
Heartbeat CPU  0 instructions:  307000000 cycles:  258839569 heartbeat IPC: 0.61076 cumulative IPC: 0.96393 (Simulation time: 0 hr 12 min 37 sec) 
Heartbeat CPU  0 instructions:  308000000 cycles:  260468713 heartbeat IPC: 0.61382 cumulative IPC: 0.96129 (Simulation time: 0 hr 12 min 41 sec) 
Heartbeat CPU  0 instructions:  309000001 cycles:  262089509 heartbeat IPC: 0.61698 cumulative IPC: 0.95873 (Simulation time: 0 hr 12 min 45 sec) 
Heartbeat CPU  0 instructions:  310000001 cycles:  263705843 heartbeat IPC: 0.61868 cumulative IPC: 0.95623 (Simulation time: 0 hr 12 min 49 sec) 
Heartbeat CPU  0 instructions:  311000000 cycles:  265324186 heartbeat IPC: 0.61792 cumulative IPC: 0.95375 (Simulation time: 0 hr 12 min 53 sec) 
Heartbeat CPU  0 instructions:  312000000 cycles:  266946746 heartbeat IPC: 0.61631 cumulative IPC: 0.95129 (Simulation time: 0 hr 12 min 57 sec) 
Heartbeat CPU  0 instructions:  313000003 cycles:  268576557 heartbeat IPC: 0.61357 cumulative IPC: 0.94884 (Simulation time: 0 hr 13 min 0 sec) 
Heartbeat CPU  0 instructions:  314000001 cycles:  270198562 heartbeat IPC: 0.61652 cumulative IPC: 0.94646 (Simulation time: 0 hr 13 min 4 sec) 
Heartbeat CPU  0 instructions:  315000001 cycles:  271825059 heartbeat IPC: 0.61482 cumulative IPC: 0.94409 (Simulation time: 0 hr 13 min 8 sec) 
Heartbeat CPU  0 instructions:  316000000 cycles:  273444929 heartbeat IPC: 0.61733 cumulative IPC: 0.94178 (Simulation time: 0 hr 13 min 12 sec) 
Heartbeat CPU  0 instructions:  317000001 cycles:  275071117 heartbeat IPC: 0.61494 cumulative IPC: 0.93948 (Simulation time: 0 hr 13 min 16 sec) 
Heartbeat CPU  0 instructions:  318000001 cycles:  276685460 heartbeat IPC: 0.61945 cumulative IPC: 0.93726 (Simulation time: 0 hr 13 min 20 sec) 
Heartbeat CPU  0 instructions:  319000001 cycles:  278312481 heartbeat IPC: 0.61462 cumulative IPC: 0.93502 (Simulation time: 0 hr 13 min 23 sec) 
Heartbeat CPU  0 instructions:  320000000 cycles:  279940179 heartbeat IPC: 0.61436 cumulative IPC: 0.93281 (Simulation time: 0 hr 13 min 27 sec) 
Heartbeat CPU  0 instructions:  321000000 cycles:  281566127 heartbeat IPC: 0.61503 cumulative IPC: 0.93063 (Simulation time: 0 hr 13 min 31 sec) 
Heartbeat CPU  0 instructions:  322000000 cycles:  283186175 heartbeat IPC: 0.61727 cumulative IPC: 0.92851 (Simulation time: 0 hr 13 min 35 sec) 
Heartbeat CPU  0 instructions:  323000000 cycles:  284806528 heartbeat IPC: 0.61715 cumulative IPC: 0.92641 (Simulation time: 0 hr 13 min 39 sec) 
Heartbeat CPU  0 instructions:  324000000 cycles:  286439196 heartbeat IPC: 0.61249 cumulative IPC: 0.92430 (Simulation time: 0 hr 13 min 43 sec) 
Heartbeat CPU  0 instructions:  325000001 cycles:  288060906 heartbeat IPC: 0.61663 cumulative IPC: 0.92225 (Simulation time: 0 hr 13 min 46 sec) 
Heartbeat CPU  0 instructions:  326000000 cycles:  289686355 heartbeat IPC: 0.61521 cumulative IPC: 0.92022 (Simulation time: 0 hr 13 min 50 sec) 
Heartbeat CPU  0 instructions:  327000002 cycles:  291311771 heartbeat IPC: 0.61523 cumulative IPC: 0.91821 (Simulation time: 0 hr 13 min 54 sec) 
Heartbeat CPU  0 instructions:  328000000 cycles:  292938563 heartbeat IPC: 0.61471 cumulative IPC: 0.91623 (Simulation time: 0 hr 13 min 58 sec) 
Heartbeat CPU  0 instructions:  329000000 cycles:  294559237 heartbeat IPC: 0.61703 cumulative IPC: 0.91429 (Simulation time: 0 hr 14 min 2 sec) 
Heartbeat CPU  0 instructions:  330000003 cycles:  296180674 heartbeat IPC: 0.61674 cumulative IPC: 0.91238 (Simulation time: 0 hr 14 min 6 sec) 
Heartbeat CPU  0 instructions:  331000000 cycles:  297798779 heartbeat IPC: 0.61801 cumulative IPC: 0.91050 (Simulation time: 0 hr 14 min 9 sec) 
Heartbeat CPU  0 instructions:  332000000 cycles:  299446503 heartbeat IPC: 0.60690 cumulative IPC: 0.90854 (Simulation time: 0 hr 14 min 13 sec) 
Heartbeat CPU  0 instructions:  333000003 cycles:  301080198 heartbeat IPC: 0.61211 cumulative IPC: 0.90666 (Simulation time: 0 hr 14 min 17 sec) 
Heartbeat CPU  0 instructions:  334000000 cycles:  302717784 heartbeat IPC: 0.61065 cumulative IPC: 0.90478 (Simulation time: 0 hr 14 min 21 sec) 
Heartbeat CPU  0 instructions:  335000002 cycles:  304343093 heartbeat IPC: 0.61527 cumulative IPC: 0.90298 (Simulation time: 0 hr 14 min 25 sec) 
Heartbeat CPU  0 instructions:  336000000 cycles:  305969938 heartbeat IPC: 0.61469 cumulative IPC: 0.90119 (Simulation time: 0 hr 14 min 28 sec) 
Heartbeat CPU  0 instructions:  337000001 cycles:  307595860 heartbeat IPC: 0.61504 cumulative IPC: 0.89942 (Simulation time: 0 hr 14 min 32 sec) 
Heartbeat CPU  0 instructions:  338000003 cycles:  309219620 heartbeat IPC: 0.61586 cumulative IPC: 0.89768 (Simulation time: 0 hr 14 min 36 sec) 
Heartbeat CPU  0 instructions:  339000000 cycles:  310850964 heartbeat IPC: 0.61299 cumulative IPC: 0.89594 (Simulation time: 0 hr 14 min 40 sec) 
Heartbeat CPU  0 instructions:  340000000 cycles:  312491851 heartbeat IPC: 0.60943 cumulative IPC: 0.89419 (Simulation time: 0 hr 14 min 44 sec) 
Heartbeat CPU  0 instructions:  341000002 cycles:  314125638 heartbeat IPC: 0.61208 cumulative IPC: 0.89248 (Simulation time: 0 hr 14 min 48 sec) 
Heartbeat CPU  0 instructions:  342000000 cycles:  315751063 heartbeat IPC: 0.61522 cumulative IPC: 0.89082 (Simulation time: 0 hr 14 min 51 sec) 
Heartbeat CPU  0 instructions:  343000000 cycles:  317374730 heartbeat IPC: 0.61589 cumulative IPC: 0.88919 (Simulation time: 0 hr 14 min 55 sec) 
Heartbeat CPU  0 instructions:  344000000 cycles:  318996408 heartbeat IPC: 0.61665 cumulative IPC: 0.88758 (Simulation time: 0 hr 14 min 59 sec) 
Heartbeat CPU  0 instructions:  345000000 cycles:  320627037 heartbeat IPC: 0.61326 cumulative IPC: 0.88597 (Simulation time: 0 hr 15 min 3 sec) 
Heartbeat CPU  0 instructions:  346000001 cycles:  322253597 heartbeat IPC: 0.61480 cumulative IPC: 0.88438 (Simulation time: 0 hr 15 min 7 sec) 
Heartbeat CPU  0 instructions:  347000000 cycles:  323886310 heartbeat IPC: 0.61248 cumulative IPC: 0.88279 (Simulation time: 0 hr 15 min 10 sec) 
Heartbeat CPU  0 instructions:  348000000 cycles:  325512178 heartbeat IPC: 0.61506 cumulative IPC: 0.88125 (Simulation time: 0 hr 15 min 14 sec) 
Heartbeat CPU  0 instructions:  349000001 cycles:  327142647 heartbeat IPC: 0.61332 cumulative IPC: 0.87970 (Simulation time: 0 hr 15 min 18 sec) 
Heartbeat CPU  0 instructions:  350000003 cycles:  328764664 heartbeat IPC: 0.61652 cumulative IPC: 0.87820 (Simulation time: 0 hr 15 min 22 sec) 
Heartbeat CPU  0 instructions:  351000001 cycles:  330385091 heartbeat IPC: 0.61712 cumulative IPC: 0.87673 (Simulation time: 0 hr 15 min 26 sec) 
Heartbeat CPU  0 instructions:  352000000 cycles:  332015301 heartbeat IPC: 0.61342 cumulative IPC: 0.87523 (Simulation time: 0 hr 15 min 30 sec) 
Heartbeat CPU  0 instructions:  353000000 cycles:  333649962 heartbeat IPC: 0.61175 cumulative IPC: 0.87375 (Simulation time: 0 hr 15 min 33 sec) 
Heartbeat CPU  0 instructions:  354000001 cycles:  335283144 heartbeat IPC: 0.61230 cumulative IPC: 0.87228 (Simulation time: 0 hr 15 min 37 sec) 
Heartbeat CPU  0 instructions:  355000003 cycles:  336914262 heartbeat IPC: 0.61308 cumulative IPC: 0.87084 (Simulation time: 0 hr 15 min 41 sec) 
Heartbeat CPU  0 instructions:  356000000 cycles:  338539833 heartbeat IPC: 0.61517 cumulative IPC: 0.86943 (Simulation time: 0 hr 15 min 45 sec) 
Heartbeat CPU  0 instructions:  357000001 cycles:  340162373 heartbeat IPC: 0.61632 cumulative IPC: 0.86804 (Simulation time: 0 hr 15 min 49 sec) 
Heartbeat CPU  0 instructions:  358000002 cycles:  341786013 heartbeat IPC: 0.61590 cumulative IPC: 0.86666 (Simulation time: 0 hr 15 min 52 sec) 
Heartbeat CPU  0 instructions:  359000000 cycles:  343412127 heartbeat IPC: 0.61496 cumulative IPC: 0.86530 (Simulation time: 0 hr 15 min 56 sec) 
Heartbeat CPU  0 instructions:  360000000 cycles:  345042292 heartbeat IPC: 0.61343 cumulative IPC: 0.86393 (Simulation time: 0 hr 16 min 0 sec) 
Heartbeat CPU  0 instructions:  361000003 cycles:  346673850 heartbeat IPC: 0.61291 cumulative IPC: 0.86258 (Simulation time: 0 hr 16 min 4 sec) 
Heartbeat CPU  0 instructions:  362000001 cycles:  348300274 heartbeat IPC: 0.61484 cumulative IPC: 0.86125 (Simulation time: 0 hr 16 min 8 sec) 
Heartbeat CPU  0 instructions:  363000002 cycles:  349924515 heartbeat IPC: 0.61567 cumulative IPC: 0.85995 (Simulation time: 0 hr 16 min 12 sec) 
Heartbeat CPU  0 instructions:  364000000 cycles:  351545050 heartbeat IPC: 0.61708 cumulative IPC: 0.85867 (Simulation time: 0 hr 16 min 15 sec) 
Heartbeat CPU  0 instructions:  365000000 cycles:  353171449 heartbeat IPC: 0.61486 cumulative IPC: 0.85739 (Simulation time: 0 hr 16 min 19 sec) 
Heartbeat CPU  0 instructions:  366000002 cycles:  354810461 heartbeat IPC: 0.61012 cumulative IPC: 0.85608 (Simulation time: 0 hr 16 min 23 sec) 
Heartbeat CPU  0 instructions:  367000003 cycles:  356438943 heartbeat IPC: 0.61407 cumulative IPC: 0.85482 (Simulation time: 0 hr 16 min 27 sec) 
Heartbeat CPU  0 instructions:  368000000 cycles:  358067446 heartbeat IPC: 0.61406 cumulative IPC: 0.85357 (Simulation time: 0 hr 16 min 31 sec) 
Heartbeat CPU  0 instructions:  369000003 cycles:  359689718 heartbeat IPC: 0.61642 cumulative IPC: 0.85235 (Simulation time: 0 hr 16 min 34 sec) 
Heartbeat CPU  0 instructions:  370000000 cycles:  361313811 heartbeat IPC: 0.61573 cumulative IPC: 0.85114 (Simulation time: 0 hr 16 min 38 sec) 
Heartbeat CPU  0 instructions:  371000002 cycles:  362937595 heartbeat IPC: 0.61585 cumulative IPC: 0.84994 (Simulation time: 0 hr 16 min 42 sec) 
Heartbeat CPU  0 instructions:  372000000 cycles:  364561753 heartbeat IPC: 0.61570 cumulative IPC: 0.84876 (Simulation time: 0 hr 16 min 46 sec) 
Heartbeat CPU  0 instructions:  373000000 cycles:  366189985 heartbeat IPC: 0.61416 cumulative IPC: 0.84757 (Simulation time: 0 hr 16 min 50 sec) 
Heartbeat CPU  0 instructions:  374000001 cycles:  367825231 heartbeat IPC: 0.61153 cumulative IPC: 0.84638 (Simulation time: 0 hr 16 min 54 sec) 
Heartbeat CPU  0 instructions:  375000003 cycles:  369456791 heartbeat IPC: 0.61291 cumulative IPC: 0.84521 (Simulation time: 0 hr 16 min 57 sec) 
Heartbeat CPU  0 instructions:  376000000 cycles:  371080931 heartbeat IPC: 0.61571 cumulative IPC: 0.84407 (Simulation time: 0 hr 17 min 1 sec) 
Heartbeat CPU  0 instructions:  377000002 cycles:  372702955 heartbeat IPC: 0.61651 cumulative IPC: 0.84294 (Simulation time: 0 hr 17 min 5 sec) 
Heartbeat CPU  0 instructions:  378000000 cycles:  374324476 heartbeat IPC: 0.61670 cumulative IPC: 0.84183 (Simulation time: 0 hr 17 min 9 sec) 
Heartbeat CPU  0 instructions:  379000001 cycles:  375950405 heartbeat IPC: 0.61503 cumulative IPC: 0.84072 (Simulation time: 0 hr 17 min 13 sec) 
Heartbeat CPU  0 instructions:  380000000 cycles:  377580172 heartbeat IPC: 0.61358 cumulative IPC: 0.83961 (Simulation time: 0 hr 17 min 16 sec) 
Heartbeat CPU  0 instructions:  381000003 cycles:  379216224 heartbeat IPC: 0.61123 cumulative IPC: 0.83850 (Simulation time: 0 hr 17 min 20 sec) 
Heartbeat CPU  0 instructions:  382000000 cycles:  380848392 heartbeat IPC: 0.61268 cumulative IPC: 0.83740 (Simulation time: 0 hr 17 min 24 sec) 
Heartbeat CPU  0 instructions:  383000002 cycles:  382480689 heartbeat IPC: 0.61263 cumulative IPC: 0.83632 (Simulation time: 0 hr 17 min 28 sec) 
Heartbeat CPU  0 instructions:  384000000 cycles:  384108996 heartbeat IPC: 0.61413 cumulative IPC: 0.83525 (Simulation time: 0 hr 17 min 32 sec) 
Heartbeat CPU  0 instructions:  385000000 cycles:  385736797 heartbeat IPC: 0.61433 cumulative IPC: 0.83420 (Simulation time: 0 hr 17 min 36 sec) 
Heartbeat CPU  0 instructions:  386000003 cycles:  387363995 heartbeat IPC: 0.61456 cumulative IPC: 0.83316 (Simulation time: 0 hr 17 min 39 sec) 
Heartbeat CPU  0 instructions:  387000001 cycles:  388993289 heartbeat IPC: 0.61376 cumulative IPC: 0.83212 (Simulation time: 0 hr 17 min 43 sec) 
Heartbeat CPU  0 instructions:  388000000 cycles:  390626451 heartbeat IPC: 0.61231 cumulative IPC: 0.83109 (Simulation time: 0 hr 17 min 47 sec) 
Heartbeat CPU  0 instructions:  389000001 cycles:  392248219 heartbeat IPC: 0.61661 cumulative IPC: 0.83009 (Simulation time: 0 hr 17 min 51 sec) 
Heartbeat CPU  0 instructions:  390000000 cycles:  393871469 heartbeat IPC: 0.61605 cumulative IPC: 0.82910 (Simulation time: 0 hr 17 min 55 sec) 
Heartbeat CPU  0 instructions:  391000001 cycles:  395501343 heartbeat IPC: 0.61355 cumulative IPC: 0.82810 (Simulation time: 0 hr 17 min 58 sec) 
Heartbeat CPU  0 instructions:  392000000 cycles:  397130687 heartbeat IPC: 0.61374 cumulative IPC: 0.82711 (Simulation time: 0 hr 18 min 2 sec) 
Heartbeat CPU  0 instructions:  393000001 cycles:  398757022 heartbeat IPC: 0.61488 cumulative IPC: 0.82613 (Simulation time: 0 hr 18 min 6 sec) 
Heartbeat CPU  0 instructions:  394000002 cycles:  400387217 heartbeat IPC: 0.61342 cumulative IPC: 0.82516 (Simulation time: 0 hr 18 min 10 sec) 
Heartbeat CPU  0 instructions:  395000000 cycles:  402019527 heartbeat IPC: 0.61263 cumulative IPC: 0.82419 (Simulation time: 0 hr 18 min 14 sec) 
Heartbeat CPU  0 instructions:  396000000 cycles:  403643831 heartbeat IPC: 0.61565 cumulative IPC: 0.82325 (Simulation time: 0 hr 18 min 18 sec) 
Heartbeat CPU  0 instructions:  397000003 cycles:  405268574 heartbeat IPC: 0.61548 cumulative IPC: 0.82231 (Simulation time: 0 hr 18 min 21 sec) 
Heartbeat CPU  0 instructions:  398000000 cycles:  406897335 heartbeat IPC: 0.61396 cumulative IPC: 0.82138 (Simulation time: 0 hr 18 min 25 sec) 
Heartbeat CPU  0 instructions:  399000003 cycles:  408532956 heartbeat IPC: 0.61139 cumulative IPC: 0.82044 (Simulation time: 0 hr 18 min 29 sec) 
Heartbeat CPU  0 instructions:  400000000 cycles:  410168774 heartbeat IPC: 0.61131 cumulative IPC: 0.81950 (Simulation time: 0 hr 18 min 33 sec) 
Heartbeat CPU  0 instructions:  401000000 cycles:  411797191 heartbeat IPC: 0.61409 cumulative IPC: 0.81859 (Simulation time: 0 hr 18 min 37 sec) 
Heartbeat CPU  0 instructions:  402000002 cycles:  413421029 heartbeat IPC: 0.61583 cumulative IPC: 0.81770 (Simulation time: 0 hr 18 min 40 sec) 
Heartbeat CPU  0 instructions:  403000003 cycles:  415049271 heartbeat IPC: 0.61416 cumulative IPC: 0.81681 (Simulation time: 0 hr 18 min 44 sec) 
Heartbeat CPU  0 instructions:  404000000 cycles:  416669457 heartbeat IPC: 0.61721 cumulative IPC: 0.81594 (Simulation time: 0 hr 18 min 48 sec) 
Heartbeat CPU  0 instructions:  405000001 cycles:  418287532 heartbeat IPC: 0.61802 cumulative IPC: 0.81508 (Simulation time: 0 hr 18 min 52 sec) 
Heartbeat CPU  0 instructions:  406000003 cycles:  419917222 heartbeat IPC: 0.61361 cumulative IPC: 0.81421 (Simulation time: 0 hr 18 min 56 sec) 
Heartbeat CPU  0 instructions:  407000000 cycles:  421545596 heartbeat IPC: 0.61411 cumulative IPC: 0.81335 (Simulation time: 0 hr 18 min 59 sec) 
Heartbeat CPU  0 instructions:  408000000 cycles:  423185352 heartbeat IPC: 0.60985 cumulative IPC: 0.81247 (Simulation time: 0 hr 19 min 3 sec) 
Heartbeat CPU  0 instructions:  409000003 cycles:  424812843 heartbeat IPC: 0.61444 cumulative IPC: 0.81162 (Simulation time: 0 hr 19 min 7 sec) 
Heartbeat CPU  0 instructions:  410000001 cycles:  426433585 heartbeat IPC: 0.61700 cumulative IPC: 0.81079 (Simulation time: 0 hr 19 min 11 sec) 
Heartbeat CPU  0 instructions:  411000003 cycles:  428055853 heartbeat IPC: 0.61642 cumulative IPC: 0.80997 (Simulation time: 0 hr 19 min 15 sec) 
Heartbeat CPU  0 instructions:  412000000 cycles:  429679789 heartbeat IPC: 0.61579 cumulative IPC: 0.80916 (Simulation time: 0 hr 19 min 19 sec) 
Heartbeat CPU  0 instructions:  413000000 cycles:  431318697 heartbeat IPC: 0.61016 cumulative IPC: 0.80831 (Simulation time: 0 hr 19 min 22 sec) 
Heartbeat CPU  0 instructions:  414000000 cycles:  432947976 heartbeat IPC: 0.61377 cumulative IPC: 0.80750 (Simulation time: 0 hr 19 min 26 sec) 
Heartbeat CPU  0 instructions:  415000002 cycles:  434578883 heartbeat IPC: 0.61316 cumulative IPC: 0.80669 (Simulation time: 0 hr 19 min 30 sec) 
Heartbeat CPU  0 instructions:  416000000 cycles:  436206841 heartbeat IPC: 0.61427 cumulative IPC: 0.80589 (Simulation time: 0 hr 19 min 34 sec) 
Heartbeat CPU  0 instructions:  417000000 cycles:  437834908 heartbeat IPC: 0.61423 cumulative IPC: 0.80510 (Simulation time: 0 hr 19 min 38 sec) 
Heartbeat CPU  0 instructions:  418000000 cycles:  439458549 heartbeat IPC: 0.61590 cumulative IPC: 0.80432 (Simulation time: 0 hr 19 min 42 sec) 
Heartbeat CPU  0 instructions:  419000002 cycles:  441085369 heartbeat IPC: 0.61470 cumulative IPC: 0.80354 (Simulation time: 0 hr 19 min 46 sec) 
Heartbeat CPU  0 instructions:  420000000 cycles:  442717737 heartbeat IPC: 0.61261 cumulative IPC: 0.80276 (Simulation time: 0 hr 19 min 49 sec) 
Heartbeat CPU  0 instructions:  421000001 cycles:  444350281 heartbeat IPC: 0.61254 cumulative IPC: 0.80198 (Simulation time: 0 hr 19 min 53 sec) 
Heartbeat CPU  0 instructions:  422000002 cycles:  445976913 heartbeat IPC: 0.61477 cumulative IPC: 0.80123 (Simulation time: 0 hr 19 min 57 sec) 
Heartbeat CPU  0 instructions:  423000001 cycles:  447601537 heartbeat IPC: 0.61553 cumulative IPC: 0.80048 (Simulation time: 0 hr 20 min 1 sec) 
Heartbeat CPU  0 instructions:  424000000 cycles:  449218398 heartbeat IPC: 0.61848 cumulative IPC: 0.79975 (Simulation time: 0 hr 20 min 5 sec) 
Heartbeat CPU  0 instructions:  425000002 cycles:  450844450 heartbeat IPC: 0.61499 cumulative IPC: 0.79901 (Simulation time: 0 hr 20 min 9 sec) 
Heartbeat CPU  0 instructions:  426000002 cycles:  452469707 heartbeat IPC: 0.61529 cumulative IPC: 0.79828 (Simulation time: 0 hr 20 min 12 sec) 
Heartbeat CPU  0 instructions:  427000001 cycles:  454098594 heartbeat IPC: 0.61392 cumulative IPC: 0.79755 (Simulation time: 0 hr 20 min 16 sec) 
Heartbeat CPU  0 instructions:  428000000 cycles:  455727263 heartbeat IPC: 0.61400 cumulative IPC: 0.79682 (Simulation time: 0 hr 20 min 20 sec) 
Heartbeat CPU  0 instructions:  429000001 cycles:  457344623 heartbeat IPC: 0.61829 cumulative IPC: 0.79612 (Simulation time: 0 hr 20 min 24 sec) 
Heartbeat CPU  0 instructions:  430000003 cycles:  461677992 heartbeat IPC: 0.23077 cumulative IPC: 0.79026 (Simulation time: 0 hr 20 min 29 sec) 
Heartbeat CPU  0 instructions:  431000003 cycles:  466554401 heartbeat IPC: 0.20507 cumulative IPC: 0.78350 (Simulation time: 0 hr 20 min 35 sec) 
Heartbeat CPU  0 instructions:  432000000 cycles:  471508840 heartbeat IPC: 0.20184 cumulative IPC: 0.77676 (Simulation time: 0 hr 20 min 42 sec) 
Heartbeat CPU  0 instructions:  433000003 cycles:  476509756 heartbeat IPC: 0.19996 cumulative IPC: 0.77009 (Simulation time: 0 hr 20 min 48 sec) 
Heartbeat CPU  0 instructions:  434000002 cycles:  481500674 heartbeat IPC: 0.20036 cumulative IPC: 0.76359 (Simulation time: 0 hr 20 min 54 sec) 
Heartbeat CPU  0 instructions:  435000002 cycles:  486497564 heartbeat IPC: 0.20012 cumulative IPC: 0.75722 (Simulation time: 0 hr 21 min 0 sec) 
Heartbeat CPU  0 instructions:  436000000 cycles:  491113190 heartbeat IPC: 0.21665 cumulative IPC: 0.75164 (Simulation time: 0 hr 21 min 5 sec) 
Heartbeat CPU  0 instructions:  437000002 cycles:  495700891 heartbeat IPC: 0.21797 cumulative IPC: 0.74622 (Simulation time: 0 hr 21 min 10 sec) 
Heartbeat CPU  0 instructions:  438000003 cycles:  500302978 heartbeat IPC: 0.21729 cumulative IPC: 0.74089 (Simulation time: 0 hr 21 min 15 sec) 
Heartbeat CPU  0 instructions:  439000000 cycles:  504897893 heartbeat IPC: 0.21763 cumulative IPC: 0.73567 (Simulation time: 0 hr 21 min 21 sec) 
Heartbeat CPU  0 instructions:  440000000 cycles:  507232193 heartbeat IPC: 0.42839 cumulative IPC: 0.73412 (Simulation time: 0 hr 21 min 25 sec) 
Heartbeat CPU  0 instructions:  441000000 cycles:  508863922 heartbeat IPC: 0.61285 cumulative IPC: 0.73369 (Simulation time: 0 hr 21 min 28 sec) 
Heartbeat CPU  0 instructions:  442000001 cycles:  510484003 heartbeat IPC: 0.61725 cumulative IPC: 0.73329 (Simulation time: 0 hr 21 min 32 sec) 
Heartbeat CPU  0 instructions:  443000000 cycles:  512092877 heartbeat IPC: 0.62155 cumulative IPC: 0.73291 (Simulation time: 0 hr 21 min 36 sec) 
Heartbeat CPU  0 instructions:  444000000 cycles:  513700445 heartbeat IPC: 0.62206 cumulative IPC: 0.73253 (Simulation time: 0 hr 21 min 40 sec) 
Heartbeat CPU  0 instructions:  445000001 cycles:  515300664 heartbeat IPC: 0.62492 cumulative IPC: 0.73216 (Simulation time: 0 hr 21 min 44 sec) 
Heartbeat CPU  0 instructions:  446000000 cycles:  516910143 heartbeat IPC: 0.62132 cumulative IPC: 0.73178 (Simulation time: 0 hr 21 min 47 sec) 
Heartbeat CPU  0 instructions:  447000001 cycles:  518516077 heartbeat IPC: 0.62269 cumulative IPC: 0.73141 (Simulation time: 0 hr 21 min 51 sec) 
Heartbeat CPU  0 instructions:  448000000 cycles:  520126772 heartbeat IPC: 0.62085 cumulative IPC: 0.73104 (Simulation time: 0 hr 21 min 55 sec) 
Heartbeat CPU  0 instructions:  449000003 cycles:  521744090 heartbeat IPC: 0.61831 cumulative IPC: 0.73066 (Simulation time: 0 hr 21 min 59 sec) 
Heartbeat CPU  0 instructions:  450000000 cycles:  523348941 heartbeat IPC: 0.62311 cumulative IPC: 0.73030 (Simulation time: 0 hr 22 min 3 sec) 
Heartbeat CPU  0 instructions:  451000000 cycles:  524948200 heartbeat IPC: 0.62529 cumulative IPC: 0.72995 (Simulation time: 0 hr 22 min 6 sec) 
Heartbeat CPU  0 instructions:  452000000 cycles:  526550190 heartbeat IPC: 0.62422 cumulative IPC: 0.72960 (Simulation time: 0 hr 22 min 10 sec) 
Heartbeat CPU  0 instructions:  453000001 cycles:  528147736 heartbeat IPC: 0.62596 cumulative IPC: 0.72926 (Simulation time: 0 hr 22 min 14 sec) 
Heartbeat CPU  0 instructions:  454000003 cycles:  529748815 heartbeat IPC: 0.62458 cumulative IPC: 0.72891 (Simulation time: 0 hr 22 min 18 sec) 
Heartbeat CPU  0 instructions:  455000003 cycles:  531353063 heartbeat IPC: 0.62335 cumulative IPC: 0.72856 (Simulation time: 0 hr 22 min 22 sec) 
Heartbeat CPU  0 instructions:  456000000 cycles:  532957464 heartbeat IPC: 0.62328 cumulative IPC: 0.72822 (Simulation time: 0 hr 22 min 25 sec) 
Heartbeat CPU  0 instructions:  457000003 cycles:  534558935 heartbeat IPC: 0.62443 cumulative IPC: 0.72788 (Simulation time: 0 hr 22 min 29 sec) 
Heartbeat CPU  0 instructions:  458000002 cycles:  536166143 heartbeat IPC: 0.62220 cumulative IPC: 0.72753 (Simulation time: 0 hr 22 min 33 sec) 
Heartbeat CPU  0 instructions:  459000000 cycles:  537762354 heartbeat IPC: 0.62648 cumulative IPC: 0.72721 (Simulation time: 0 hr 22 min 37 sec) 
Heartbeat CPU  0 instructions:  460000000 cycles:  539361718 heartbeat IPC: 0.62525 cumulative IPC: 0.72688 (Simulation time: 0 hr 22 min 41 sec) 
Heartbeat CPU  0 instructions:  461000001 cycles:  540959297 heartbeat IPC: 0.62595 cumulative IPC: 0.72655 (Simulation time: 0 hr 22 min 44 sec) 
Heartbeat CPU  0 instructions:  462000001 cycles:  542565593 heartbeat IPC: 0.62255 cumulative IPC: 0.72622 (Simulation time: 0 hr 22 min 48 sec) 
Heartbeat CPU  0 instructions:  463000002 cycles:  544174686 heartbeat IPC: 0.62147 cumulative IPC: 0.72588 (Simulation time: 0 hr 22 min 52 sec) 
Heartbeat CPU  0 instructions:  464000000 cycles:  545776912 heartbeat IPC: 0.62413 cumulative IPC: 0.72556 (Simulation time: 0 hr 22 min 56 sec) 
Heartbeat CPU  0 instructions:  465000000 cycles:  547382578 heartbeat IPC: 0.62279 cumulative IPC: 0.72523 (Simulation time: 0 hr 23 min 0 sec) 
Heartbeat CPU  0 instructions:  466000000 cycles:  548984225 heartbeat IPC: 0.62436 cumulative IPC: 0.72491 (Simulation time: 0 hr 23 min 4 sec) 
Heartbeat CPU  0 instructions:  467000003 cycles:  550581216 heartbeat IPC: 0.62618 cumulative IPC: 0.72460 (Simulation time: 0 hr 23 min 8 sec) 
Heartbeat CPU  0 instructions:  468000000 cycles:  552182064 heartbeat IPC: 0.62467 cumulative IPC: 0.72428 (Simulation time: 0 hr 23 min 12 sec) 
Heartbeat CPU  0 instructions:  469000001 cycles:  553781721 heartbeat IPC: 0.62513 cumulative IPC: 0.72397 (Simulation time: 0 hr 23 min 15 sec) 
Heartbeat CPU  0 instructions:  470000002 cycles:  555392376 heartbeat IPC: 0.62087 cumulative IPC: 0.72365 (Simulation time: 0 hr 23 min 19 sec) 
Heartbeat CPU  0 instructions:  471000002 cycles:  556995920 heartbeat IPC: 0.62362 cumulative IPC: 0.72333 (Simulation time: 0 hr 23 min 23 sec) 
Heartbeat CPU  0 instructions:  472000000 cycles:  558612291 heartbeat IPC: 0.61867 cumulative IPC: 0.72300 (Simulation time: 0 hr 23 min 27 sec) 
Heartbeat CPU  0 instructions:  473000001 cycles:  560207466 heartbeat IPC: 0.62689 cumulative IPC: 0.72271 (Simulation time: 0 hr 23 min 31 sec) 
Heartbeat CPU  0 instructions:  474000002 cycles:  561807648 heartbeat IPC: 0.62493 cumulative IPC: 0.72241 (Simulation time: 0 hr 23 min 35 sec) 
Heartbeat CPU  0 instructions:  475000003 cycles:  563408721 heartbeat IPC: 0.62458 cumulative IPC: 0.72210 (Simulation time: 0 hr 23 min 39 sec) 
Heartbeat CPU  0 instructions:  476000000 cycles:  565034940 heartbeat IPC: 0.61492 cumulative IPC: 0.72177 (Simulation time: 0 hr 23 min 43 sec) 
Heartbeat CPU  0 instructions:  477000000 cycles:  566637597 heartbeat IPC: 0.62396 cumulative IPC: 0.72147 (Simulation time: 0 hr 23 min 46 sec) 
Heartbeat CPU  0 instructions:  478000000 cycles:  568240112 heartbeat IPC: 0.62402 cumulative IPC: 0.72117 (Simulation time: 0 hr 23 min 50 sec) 
Heartbeat CPU  0 instructions:  479000002 cycles:  569849107 heartbeat IPC: 0.62151 cumulative IPC: 0.72087 (Simulation time: 0 hr 23 min 54 sec) 
Heartbeat CPU  0 instructions:  480000000 cycles:  571456749 heartbeat IPC: 0.62203 cumulative IPC: 0.72056 (Simulation time: 0 hr 23 min 58 sec) 
Heartbeat CPU  0 instructions:  481000001 cycles:  573055127 heartbeat IPC: 0.62563 cumulative IPC: 0.72028 (Simulation time: 0 hr 24 min 2 sec) 
Heartbeat CPU  0 instructions:  482000001 cycles:  574664947 heartbeat IPC: 0.62119 cumulative IPC: 0.71998 (Simulation time: 0 hr 24 min 6 sec) 
Heartbeat CPU  0 instructions:  483000001 cycles:  576268167 heartbeat IPC: 0.62374 cumulative IPC: 0.71969 (Simulation time: 0 hr 24 min 9 sec) 
Heartbeat CPU  0 instructions:  484000000 cycles:  577877493 heartbeat IPC: 0.62138 cumulative IPC: 0.71939 (Simulation time: 0 hr 24 min 13 sec) 
Heartbeat CPU  0 instructions:  485000000 cycles:  579492613 heartbeat IPC: 0.61915 cumulative IPC: 0.71909 (Simulation time: 0 hr 24 min 17 sec) 
Heartbeat CPU  0 instructions:  486000000 cycles:  581099021 heartbeat IPC: 0.62251 cumulative IPC: 0.71880 (Simulation time: 0 hr 24 min 21 sec) 
Heartbeat CPU  0 instructions:  487000003 cycles:  582701429 heartbeat IPC: 0.62406 cumulative IPC: 0.71852 (Simulation time: 0 hr 24 min 25 sec) 
Heartbeat CPU  0 instructions:  488000000 cycles:  584302633 heartbeat IPC: 0.62453 cumulative IPC: 0.71824 (Simulation time: 0 hr 24 min 28 sec) 
Heartbeat CPU  0 instructions:  489000003 cycles:  585902406 heartbeat IPC: 0.62509 cumulative IPC: 0.71796 (Simulation time: 0 hr 24 min 32 sec) 
Heartbeat CPU  0 instructions:  490000002 cycles:  587511213 heartbeat IPC: 0.62158 cumulative IPC: 0.71768 (Simulation time: 0 hr 24 min 36 sec) 
Heartbeat CPU  0 instructions:  491000000 cycles:  589121352 heartbeat IPC: 0.62106 cumulative IPC: 0.71739 (Simulation time: 0 hr 24 min 40 sec) 
Heartbeat CPU  0 instructions:  492000000 cycles:  590728112 heartbeat IPC: 0.62237 cumulative IPC: 0.71711 (Simulation time: 0 hr 24 min 44 sec) 
Heartbeat CPU  0 instructions:  493000003 cycles:  592338135 heartbeat IPC: 0.62111 cumulative IPC: 0.71683 (Simulation time: 0 hr 24 min 47 sec) 
Heartbeat CPU  0 instructions:  494000002 cycles:  593944520 heartbeat IPC: 0.62252 cumulative IPC: 0.71656 (Simulation time: 0 hr 24 min 51 sec) 
Heartbeat CPU  0 instructions:  495000001 cycles:  595543420 heartbeat IPC: 0.62543 cumulative IPC: 0.71629 (Simulation time: 0 hr 24 min 55 sec) 
Heartbeat CPU  0 instructions:  496000000 cycles:  597148652 heartbeat IPC: 0.62296 cumulative IPC: 0.71602 (Simulation time: 0 hr 24 min 59 sec) 
Heartbeat CPU  0 instructions:  497000003 cycles:  598747423 heartbeat IPC: 0.62548 cumulative IPC: 0.71576 (Simulation time: 0 hr 25 min 3 sec) 
Heartbeat CPU  0 instructions:  498000000 cycles:  600356554 heartbeat IPC: 0.62145 cumulative IPC: 0.71549 (Simulation time: 0 hr 25 min 6 sec) 
Heartbeat CPU  0 instructions:  499000002 cycles:  601961963 heartbeat IPC: 0.62290 cumulative IPC: 0.71522 (Simulation time: 0 hr 25 min 10 sec) 
Heartbeat CPU  0 instructions:  500000000 cycles:  603573306 heartbeat IPC: 0.62060 cumulative IPC: 0.71495 (Simulation time: 0 hr 25 min 14 sec) 
Heartbeat CPU  0 instructions:  501000003 cycles:  605175670 heartbeat IPC: 0.62408 cumulative IPC: 0.71469 (Simulation time: 0 hr 25 min 18 sec) 
Heartbeat CPU  0 instructions:  502000001 cycles:  606783687 heartbeat IPC: 0.62188 cumulative IPC: 0.71442 (Simulation time: 0 hr 25 min 22 sec) 
Heartbeat CPU  0 instructions:  503000000 cycles:  608379426 heartbeat IPC: 0.62667 cumulative IPC: 0.71418 (Simulation time: 0 hr 25 min 26 sec) 
Heartbeat CPU  0 instructions:  504000000 cycles:  609988104 heartbeat IPC: 0.62163 cumulative IPC: 0.71391 (Simulation time: 0 hr 25 min 29 sec) 
Heartbeat CPU  0 instructions:  505000000 cycles:  611592173 heartbeat IPC: 0.62341 cumulative IPC: 0.71366 (Simulation time: 0 hr 25 min 33 sec) 
Heartbeat CPU  0 instructions:  506000000 cycles:  613196968 heartbeat IPC: 0.62313 cumulative IPC: 0.71340 (Simulation time: 0 hr 25 min 37 sec) 
Heartbeat CPU  0 instructions:  507000002 cycles:  614802114 heartbeat IPC: 0.62300 cumulative IPC: 0.71315 (Simulation time: 0 hr 25 min 41 sec) 
Heartbeat CPU  0 instructions:  508000000 cycles:  616409344 heartbeat IPC: 0.62219 cumulative IPC: 0.71289 (Simulation time: 0 hr 25 min 45 sec) 
Heartbeat CPU  0 instructions:  509000003 cycles:  618011589 heartbeat IPC: 0.62413 cumulative IPC: 0.71264 (Simulation time: 0 hr 25 min 48 sec) 
Heartbeat CPU  0 instructions:  510000000 cycles:  619610959 heartbeat IPC: 0.62524 cumulative IPC: 0.71240 (Simulation time: 0 hr 25 min 52 sec) 
Heartbeat CPU  0 instructions:  511000002 cycles:  621211428 heartbeat IPC: 0.62482 cumulative IPC: 0.71216 (Simulation time: 0 hr 25 min 56 sec) 
Heartbeat CPU  0 instructions:  512000000 cycles:  622813461 heartbeat IPC: 0.62421 cumulative IPC: 0.71191 (Simulation time: 0 hr 26 min 0 sec) 
Heartbeat CPU  0 instructions:  513000000 cycles:  624421327 heartbeat IPC: 0.62194 cumulative IPC: 0.71167 (Simulation time: 0 hr 26 min 4 sec) 
Heartbeat CPU  0 instructions:  514000001 cycles:  626027262 heartbeat IPC: 0.62269 cumulative IPC: 0.71142 (Simulation time: 0 hr 26 min 8 sec) 
Heartbeat CPU  0 instructions:  515000001 cycles:  627629409 heartbeat IPC: 0.62416 cumulative IPC: 0.71118 (Simulation time: 0 hr 26 min 12 sec) 
Heartbeat CPU  0 instructions:  516000000 cycles:  629232157 heartbeat IPC: 0.62393 cumulative IPC: 0.71094 (Simulation time: 0 hr 26 min 15 sec) 
Heartbeat CPU  0 instructions:  517000000 cycles:  630831468 heartbeat IPC: 0.62527 cumulative IPC: 0.71071 (Simulation time: 0 hr 26 min 19 sec) 
Heartbeat CPU  0 instructions:  518000000 cycles:  632434544 heartbeat IPC: 0.62380 cumulative IPC: 0.71047 (Simulation time: 0 hr 26 min 23 sec) 
Heartbeat CPU  0 instructions:  519000002 cycles:  634035071 heartbeat IPC: 0.62480 cumulative IPC: 0.71024 (Simulation time: 0 hr 26 min 27 sec) 
Heartbeat CPU  0 instructions:  520000000 cycles:  635640358 heartbeat IPC: 0.62294 cumulative IPC: 0.71000 (Simulation time: 0 hr 26 min 31 sec) 
Heartbeat CPU  0 instructions:  521000000 cycles:  637247626 heartbeat IPC: 0.62217 cumulative IPC: 0.70976 (Simulation time: 0 hr 26 min 34 sec) 
Heartbeat CPU  0 instructions:  522000003 cycles:  638854516 heartbeat IPC: 0.62232 cumulative IPC: 0.70953 (Simulation time: 0 hr 26 min 38 sec) 
Heartbeat CPU  0 instructions:  523000001 cycles:  640454090 heartbeat IPC: 0.62517 cumulative IPC: 0.70930 (Simulation time: 0 hr 26 min 42 sec) 
Heartbeat CPU  0 instructions:  524000000 cycles:  642056373 heartbeat IPC: 0.62411 cumulative IPC: 0.70907 (Simulation time: 0 hr 26 min 46 sec) 
Heartbeat CPU  0 instructions:  525000000 cycles:  643658329 heartbeat IPC: 0.62424 cumulative IPC: 0.70885 (Simulation time: 0 hr 26 min 50 sec) 
Heartbeat CPU  0 instructions:  526000000 cycles:  645261208 heartbeat IPC: 0.62388 cumulative IPC: 0.70862 (Simulation time: 0 hr 26 min 53 sec) 
Heartbeat CPU  0 instructions:  527000000 cycles:  646866648 heartbeat IPC: 0.62288 cumulative IPC: 0.70839 (Simulation time: 0 hr 26 min 57 sec) 
Heartbeat CPU  0 instructions:  528000000 cycles:  648473931 heartbeat IPC: 0.62217 cumulative IPC: 0.70816 (Simulation time: 0 hr 27 min 1 sec) 
Heartbeat CPU  0 instructions:  529000003 cycles:  650081491 heartbeat IPC: 0.62206 cumulative IPC: 0.70793 (Simulation time: 0 hr 27 min 5 sec) 
Heartbeat CPU  0 instructions:  530000003 cycles:  651687039 heartbeat IPC: 0.62284 cumulative IPC: 0.70771 (Simulation time: 0 hr 27 min 9 sec) 
Heartbeat CPU  0 instructions:  531000002 cycles:  653292779 heartbeat IPC: 0.62277 cumulative IPC: 0.70749 (Simulation time: 0 hr 27 min 13 sec) 
Heartbeat CPU  0 instructions:  532000000 cycles:  654901736 heartbeat IPC: 0.62152 cumulative IPC: 0.70726 (Simulation time: 0 hr 27 min 16 sec) 
Heartbeat CPU  0 instructions:  533000002 cycles:  656503073 heartbeat IPC: 0.62448 cumulative IPC: 0.70704 (Simulation time: 0 hr 27 min 20 sec) 
Heartbeat CPU  0 instructions:  534000001 cycles:  658105624 heartbeat IPC: 0.62400 cumulative IPC: 0.70683 (Simulation time: 0 hr 27 min 24 sec) 
Heartbeat CPU  0 instructions:  535000003 cycles:  659708681 heartbeat IPC: 0.62381 cumulative IPC: 0.70661 (Simulation time: 0 hr 27 min 28 sec) 
Heartbeat CPU  0 instructions:  536000000 cycles:  661312456 heartbeat IPC: 0.62353 cumulative IPC: 0.70639 (Simulation time: 0 hr 27 min 32 sec) 
Heartbeat CPU  0 instructions:  537000001 cycles:  662924406 heartbeat IPC: 0.62037 cumulative IPC: 0.70617 (Simulation time: 0 hr 27 min 35 sec) 
Heartbeat CPU  0 instructions:  538000002 cycles:  664535147 heartbeat IPC: 0.62083 cumulative IPC: 0.70595 (Simulation time: 0 hr 27 min 39 sec) 
Heartbeat CPU  0 instructions:  539000000 cycles:  666140363 heartbeat IPC: 0.62297 cumulative IPC: 0.70573 (Simulation time: 0 hr 27 min 43 sec) 
Heartbeat CPU  0 instructions:  540000000 cycles:  667743161 heartbeat IPC: 0.62391 cumulative IPC: 0.70552 (Simulation time: 0 hr 27 min 47 sec) 
Heartbeat CPU  0 instructions:  541000002 cycles:  669354900 heartbeat IPC: 0.62045 cumulative IPC: 0.70530 (Simulation time: 0 hr 27 min 51 sec) 
Heartbeat CPU  0 instructions:  542000003 cycles:  670961483 heartbeat IPC: 0.62244 cumulative IPC: 0.70509 (Simulation time: 0 hr 27 min 55 sec) 
Heartbeat CPU  0 instructions:  543000001 cycles:  672567210 heartbeat IPC: 0.62277 cumulative IPC: 0.70488 (Simulation time: 0 hr 27 min 58 sec) 
Heartbeat CPU  0 instructions:  544000000 cycles:  674173787 heartbeat IPC: 0.62244 cumulative IPC: 0.70467 (Simulation time: 0 hr 28 min 2 sec) 
Heartbeat CPU  0 instructions:  545000002 cycles:  675780899 heartbeat IPC: 0.62224 cumulative IPC: 0.70446 (Simulation time: 0 hr 28 min 6 sec) 
Heartbeat CPU  0 instructions:  546000000 cycles:  677384576 heartbeat IPC: 0.62357 cumulative IPC: 0.70426 (Simulation time: 0 hr 28 min 10 sec) 
Heartbeat CPU  0 instructions:  547000000 cycles:  678985241 heartbeat IPC: 0.62474 cumulative IPC: 0.70406 (Simulation time: 0 hr 28 min 14 sec) 
Heartbeat CPU  0 instructions:  548000000 cycles:  680591382 heartbeat IPC: 0.62261 cumulative IPC: 0.70385 (Simulation time: 0 hr 28 min 18 sec) 
Heartbeat CPU  0 instructions:  549000003 cycles:  682198581 heartbeat IPC: 0.62220 cumulative IPC: 0.70364 (Simulation time: 0 hr 28 min 21 sec) 
Heartbeat CPU  0 instructions:  550000001 cycles:  683804180 heartbeat IPC: 0.62282 cumulative IPC: 0.70344 (Simulation time: 0 hr 28 min 25 sec) 
Heartbeat CPU  0 instructions:  551000003 cycles:  685410266 heartbeat IPC: 0.62263 cumulative IPC: 0.70324 (Simulation time: 0 hr 28 min 29 sec) 
Heartbeat CPU  0 instructions:  552000000 cycles:  687011486 heartbeat IPC: 0.62452 cumulative IPC: 0.70304 (Simulation time: 0 hr 28 min 33 sec) 
Heartbeat CPU  0 instructions:  553000002 cycles:  688611468 heartbeat IPC: 0.62501 cumulative IPC: 0.70285 (Simulation time: 0 hr 28 min 37 sec) 
Heartbeat CPU  0 instructions:  554000002 cycles:  690211725 heartbeat IPC: 0.62490 cumulative IPC: 0.70266 (Simulation time: 0 hr 28 min 41 sec) 
Heartbeat CPU  0 instructions:  555000001 cycles:  691805893 heartbeat IPC: 0.62729 cumulative IPC: 0.70247 (Simulation time: 0 hr 28 min 44 sec) 
Heartbeat CPU  0 instructions:  556000000 cycles:  693409380 heartbeat IPC: 0.62364 cumulative IPC: 0.70228 (Simulation time: 0 hr 28 min 48 sec) 
Heartbeat CPU  0 instructions:  557000001 cycles:  695014029 heartbeat IPC: 0.62319 cumulative IPC: 0.70208 (Simulation time: 0 hr 28 min 52 sec) 
Heartbeat CPU  0 instructions:  558000000 cycles:  696625147 heartbeat IPC: 0.62069 cumulative IPC: 0.70188 (Simulation time: 0 hr 28 min 56 sec) 
Heartbeat CPU  0 instructions:  559000000 cycles:  698236174 heartbeat IPC: 0.62072 cumulative IPC: 0.70168 (Simulation time: 0 hr 29 min 0 sec) 
Heartbeat CPU  0 instructions:  560000000 cycles:  699840365 heartbeat IPC: 0.62337 cumulative IPC: 0.70149 (Simulation time: 0 hr 29 min 3 sec) 
Heartbeat CPU  0 instructions:  561000003 cycles:  701436089 heartbeat IPC: 0.62668 cumulative IPC: 0.70131 (Simulation time: 0 hr 29 min 7 sec) 
Heartbeat CPU  0 instructions:  562000003 cycles:  703036160 heartbeat IPC: 0.62497 cumulative IPC: 0.70112 (Simulation time: 0 hr 29 min 11 sec) 
Heartbeat CPU  0 instructions:  563000001 cycles:  704636059 heartbeat IPC: 0.62504 cumulative IPC: 0.70094 (Simulation time: 0 hr 29 min 15 sec) 
Heartbeat CPU  0 instructions:  564000000 cycles:  706258031 heartbeat IPC: 0.61653 cumulative IPC: 0.70073 (Simulation time: 0 hr 29 min 19 sec) 
Heartbeat CPU  0 instructions:  565000000 cycles:  707861639 heartbeat IPC: 0.62359 cumulative IPC: 0.70054 (Simulation time: 0 hr 29 min 23 sec) 
Heartbeat CPU  0 instructions:  566000003 cycles:  709472545 heartbeat IPC: 0.62077 cumulative IPC: 0.70035 (Simulation time: 0 hr 29 min 27 sec) 
Heartbeat CPU  0 instructions:  567000002 cycles:  711072959 heartbeat IPC: 0.62484 cumulative IPC: 0.70017 (Simulation time: 0 hr 29 min 31 sec) 
Heartbeat CPU  0 instructions:  568000000 cycles:  712679047 heartbeat IPC: 0.62263 cumulative IPC: 0.69998 (Simulation time: 0 hr 29 min 34 sec) 
Heartbeat CPU  0 instructions:  569000003 cycles:  714276498 heartbeat IPC: 0.62600 cumulative IPC: 0.69981 (Simulation time: 0 hr 29 min 38 sec) 
Heartbeat CPU  0 instructions:  570000003 cycles:  715879759 heartbeat IPC: 0.62373 cumulative IPC: 0.69963 (Simulation time: 0 hr 29 min 42 sec) 
Heartbeat CPU  0 instructions:  571000000 cycles:  717482001 heartbeat IPC: 0.62412 cumulative IPC: 0.69945 (Simulation time: 0 hr 29 min 46 sec) 
Heartbeat CPU  0 instructions:  572000000 cycles:  719085657 heartbeat IPC: 0.62358 cumulative IPC: 0.69927 (Simulation time: 0 hr 29 min 50 sec) 
Heartbeat CPU  0 instructions:  573000002 cycles:  720697565 heartbeat IPC: 0.62038 cumulative IPC: 0.69908 (Simulation time: 0 hr 29 min 54 sec) 
Heartbeat CPU  0 instructions:  574000002 cycles:  722301863 heartbeat IPC: 0.62333 cumulative IPC: 0.69890 (Simulation time: 0 hr 29 min 57 sec) 
Heartbeat CPU  0 instructions:  575000001 cycles:  723906295 heartbeat IPC: 0.62327 cumulative IPC: 0.69872 (Simulation time: 0 hr 30 min 1 sec) 
Heartbeat CPU  0 instructions:  576000000 cycles:  725503627 heartbeat IPC: 0.62604 cumulative IPC: 0.69855 (Simulation time: 0 hr 30 min 5 sec) 
Heartbeat CPU  0 instructions:  577000003 cycles:  727106044 heartbeat IPC: 0.62406 cumulative IPC: 0.69838 (Simulation time: 0 hr 30 min 9 sec) 
Heartbeat CPU  0 instructions:  578000000 cycles:  728719135 heartbeat IPC: 0.61993 cumulative IPC: 0.69819 (Simulation time: 0 hr 30 min 13 sec) 
Heartbeat CPU  0 instructions:  579000000 cycles:  730320849 heartbeat IPC: 0.62433 cumulative IPC: 0.69802 (Simulation time: 0 hr 30 min 16 sec) 
Heartbeat CPU  0 instructions:  580000000 cycles:  731924698 heartbeat IPC: 0.62350 cumulative IPC: 0.69784 (Simulation time: 0 hr 30 min 20 sec) 
Heartbeat CPU  0 instructions:  581000001 cycles:  733526154 heartbeat IPC: 0.62443 cumulative IPC: 0.69767 (Simulation time: 0 hr 30 min 24 sec) 
Heartbeat CPU  0 instructions:  582000003 cycles:  735181163 heartbeat IPC: 0.60423 cumulative IPC: 0.69745 (Simulation time: 0 hr 30 min 28 sec) 
Heartbeat CPU  0 instructions:  583000003 cycles:  737087999 heartbeat IPC: 0.52443 cumulative IPC: 0.69697 (Simulation time: 0 hr 30 min 32 sec) 
Heartbeat CPU  0 instructions:  584000000 cycles:  738513588 heartbeat IPC: 0.70146 cumulative IPC: 0.69698 (Simulation time: 0 hr 30 min 35 sec) 
Heartbeat CPU  0 instructions:  585000001 cycles:  739949945 heartbeat IPC: 0.69621 cumulative IPC: 0.69698 (Simulation time: 0 hr 30 min 39 sec) 
Heartbeat CPU  0 instructions:  586000000 cycles:  741368248 heartbeat IPC: 0.70507 cumulative IPC: 0.69700 (Simulation time: 0 hr 30 min 43 sec) 
Heartbeat CPU  0 instructions:  587000003 cycles:  742768953 heartbeat IPC: 0.71393 cumulative IPC: 0.69703 (Simulation time: 0 hr 30 min 46 sec) 
Heartbeat CPU  0 instructions:  588000000 cycles:  744159366 heartbeat IPC: 0.71921 cumulative IPC: 0.69708 (Simulation time: 0 hr 30 min 50 sec) 
Heartbeat CPU  0 instructions:  589000002 cycles:  745572868 heartbeat IPC: 0.70746 cumulative IPC: 0.69710 (Simulation time: 0 hr 30 min 54 sec) 
Heartbeat CPU  0 instructions:  590000001 cycles:  746998591 heartbeat IPC: 0.70140 cumulative IPC: 0.69711 (Simulation time: 0 hr 30 min 57 sec) 
Heartbeat CPU  0 instructions:  591000000 cycles:  748381233 heartbeat IPC: 0.72325 cumulative IPC: 0.69716 (Simulation time: 0 hr 31 min 1 sec) 
Heartbeat CPU  0 instructions:  592000000 cycles:  749775248 heartbeat IPC: 0.71735 cumulative IPC: 0.69720 (Simulation time: 0 hr 31 min 5 sec) 
Heartbeat CPU  0 instructions:  593000002 cycles:  751178191 heartbeat IPC: 0.71279 cumulative IPC: 0.69723 (Simulation time: 0 hr 31 min 8 sec) 
Heartbeat CPU  0 instructions:  594000000 cycles:  752583546 heartbeat IPC: 0.71156 cumulative IPC: 0.69726 (Simulation time: 0 hr 31 min 12 sec) 
Heartbeat CPU  0 instructions:  595000003 cycles:  754004901 heartbeat IPC: 0.70356 cumulative IPC: 0.69727 (Simulation time: 0 hr 31 min 16 sec) 
Heartbeat CPU  0 instructions:  596000000 cycles:  755408136 heartbeat IPC: 0.71264 cumulative IPC: 0.69730 (Simulation time: 0 hr 31 min 19 sec) 
Heartbeat CPU  0 instructions:  597000001 cycles:  756798995 heartbeat IPC: 0.71898 cumulative IPC: 0.69734 (Simulation time: 0 hr 31 min 23 sec) 
Heartbeat CPU  0 instructions:  598000002 cycles:  758199061 heartbeat IPC: 0.71425 cumulative IPC: 0.69737 (Simulation time: 0 hr 31 min 27 sec) 
Heartbeat CPU  0 instructions:  599000001 cycles:  759595477 heartbeat IPC: 0.71612 cumulative IPC: 0.69741 (Simulation time: 0 hr 31 min 30 sec) 
Heartbeat CPU  0 instructions:  600000000 cycles:  761000260 heartbeat IPC: 0.71185 cumulative IPC: 0.69744 (Simulation time: 0 hr 31 min 34 sec) 
Finished CPU 0 instructions: 500000000 cycles: 716907691 cumulative IPC: 0.69744 (Simulation time: 0 hr 31 min 34 sec) 

ChampSim completed all CPUs

[ROI Statistics]
Core_0_instructions 500000000
Core_0_cycles 716907691
Core_0_IPC 0.69744

Core_0_branch_prediction_accuracy 99.62850
Core_0_branch_MPKI 0.04819
Core_0_average_ROB_occupancy_at_mispredict 253.74897

Core_0_L1D_total_access 235914304
Core_0_L1D_total_hit 227593105
Core_0_L1D_total_miss 8321199
Core_0_L1D_loads 199239193
Core_0_L1D_load_hit 190918462
Core_0_L1D_load_miss 8320731
Core_0_L1D_RFOs 36675111
Core_0_L1D_RFO_hit 36674643
Core_0_L1D_RFO_miss 468
Core_0_L1D_prefetches 0
Core_0_L1D_prefetch_hit 0
Core_0_L1D_prefetch_miss 0
Core_0_L1D_writebacks 0
Core_0_L1D_writeback_hit 0
Core_0_L1D_writeback_miss 0
Core_0_L1D_prefetch_requested 0
Core_0_L1D_prefetch_dropped 0
Core_0_L1D_prefetch_issued 0
Core_0_L1D_prefetch_filled 0
Core_0_L1D_prefetch_useful 0
Core_0_L1D_prefetch_useless 0
Core_0_L1D_prefetch_late 0
Core_0_L1D_average_miss_latency 62.19543

Core_0_L1D_rq_access 247913881
Core_0_L1D_rq_forward 0
Core_0_L1D_rq_merged 46565886
Core_0_L1D_rq_to_cache 201305061
Core_0_L1D_rq_full 0

Core_0_L1D_wq_access 36675176
Core_0_L1D_wq_forward 42934
Core_0_L1D_wq_merged 0
Core_0_L1D_wq_to_cache 36675176
Core_0_L1D_wq_full 0

Core_0_L1D_pq_access 0
Core_0_L1D_pq_forward 0
Core_0_L1D_pq_merged 0
Core_0_L1D_pq_to_cache 0
Core_0_L1D_pq_full 0

Core_0_L1D_acc_epochs 689383
Core_0_L1D_acc_level_0 689383
Core_0_L1D_acc_level_1 0
Core_0_L1D_acc_level_2 0
Core_0_L1D_acc_level_3 0
Core_0_L1D_acc_level_4 0
Core_0_L1D_acc_level_5 0
Core_0_L1D_acc_level_6 0
Core_0_L1D_acc_level_7 0
Core_0_L1D_acc_level_8 0
Core_0_L1D_acc_level_9 0

Core_0_L1I_total_access 125331898
Core_0_L1I_total_hit 125331664
Core_0_L1I_total_miss 234
Core_0_L1I_loads 125331898
Core_0_L1I_load_hit 125331664
Core_0_L1I_load_miss 234
Core_0_L1I_RFOs 0
Core_0_L1I_RFO_hit 0
Core_0_L1I_RFO_miss 0
Core_0_L1I_prefetches 0
Core_0_L1I_prefetch_hit 0
Core_0_L1I_prefetch_miss 0
Core_0_L1I_writebacks 0
Core_0_L1I_writeback_hit 0
Core_0_L1I_writeback_miss 0
Core_0_L1I_prefetch_requested 0
Core_0_L1I_prefetch_dropped 0
Core_0_L1I_prefetch_issued 0
Core_0_L1I_prefetch_filled 0
Core_0_L1I_prefetch_useful 0
Core_0_L1I_prefetch_useless 0
Core_0_L1I_prefetch_late 0
Core_0_L1I_average_miss_latency 241.92735

Core_0_L1I_rq_access 500000222
Core_0_L1I_rq_forward 0
Core_0_L1I_rq_merged 374668187
Core_0_L1I_rq_to_cache 125332035
Core_0_L1I_rq_full 0

Core_0_L1I_wq_access 0
Core_0_L1I_wq_forward 0
Core_0_L1I_wq_merged 0
Core_0_L1I_wq_to_cache 0
Core_0_L1I_wq_full 0

Core_0_L1I_pq_access 0
Core_0_L1I_pq_forward 0
Core_0_L1I_pq_merged 0
Core_0_L1I_pq_to_cache 0
Core_0_L1I_pq_full 0

Core_0_L1I_acc_epochs 689383
Core_0_L1I_acc_level_0 689383
Core_0_L1I_acc_level_1 0
Core_0_L1I_acc_level_2 0
Core_0_L1I_acc_level_3 0
Core_0_L1I_acc_level_4 0
Core_0_L1I_acc_level_5 0
Core_0_L1I_acc_level_6 0
Core_0_L1I_acc_level_7 0
Core_0_L1I_acc_level_8 0
Core_0_L1I_acc_level_9 0

Core_0_L2C_total_access 18339110
Core_0_L2C_total_hit 9810279
Core_0_L2C_total_miss 8528831
Core_0_L2C_loads 8320591
Core_0_L2C_load_hit 6279015
Core_0_L2C_load_miss 2041576
Core_0_L2C_RFOs 401
Core_0_L2C_RFO_hit 374
Core_0_L2C_RFO_miss 27
Core_0_L2C_prefetches 6548435
Core_0_L2C_prefetch_hit 61491
Core_0_L2C_prefetch_miss 6486944
Core_0_L2C_writebacks 3469683
Core_0_L2C_writeback_hit 3469399
Core_0_L2C_writeback_miss 284
Core_0_L2C_prefetch_requested 10474380
Core_0_L2C_prefetch_dropped 0
Core_0_L2C_prefetch_issued 10474380
Core_0_L2C_prefetch_filled 8995225
Core_0_L2C_prefetch_useful 8344529
Core_0_L2C_prefetch_useless 650334
Core_0_L2C_prefetch_late 21257
Core_0_L2C_average_miss_latency 332.12341

Core_0_L2C_rq_access 8321433
Core_0_L2C_rq_forward 0
Core_0_L2C_rq_merged 0
Core_0_L2C_rq_to_cache 8320992
Core_0_L2C_rq_full 0

Core_0_L2C_wq_access 3469683
Core_0_L2C_wq_forward 443
Core_0_L2C_wq_merged 0
Core_0_L2C_wq_to_cache 3469683
Core_0_L2C_wq_full 0

Core_0_L2C_pq_access 10474380
Core_0_L2C_pq_forward 0
Core_0_L2C_pq_merged 0
Core_0_L2C_pq_to_cache 10474378
Core_0_L2C_pq_full 0

Core_0_L2C_acc_epochs 689383
Core_0_L2C_acc_level_0 119982
Core_0_L2C_acc_level_1 97928
Core_0_L2C_acc_level_2 85784
Core_0_L2C_acc_level_3 75381
Core_0_L2C_acc_level_4 53039
Core_0_L2C_acc_level_5 46298
Core_0_L2C_acc_level_6 34611
Core_0_L2C_acc_level_7 26838
Core_0_L2C_acc_level_8 21429
Core_0_L2C_acc_level_9 128093

Core_0_LLC_total_access 13358410
Core_0_LLC_total_hit 1779097
Core_0_LLC_total_miss 11579313
Core_0_LLC_loads 2020484
Core_0_LLC_load_hit 668006
Core_0_LLC_load_miss 1352478
Core_0_LLC_RFOs 27
Core_0_LLC_RFO_hit 0
Core_0_LLC_RFO_miss 27
Core_0_LLC_prefetches 7878681
Core_0_LLC_prefetch_hit 338191
Core_0_LLC_prefetch_miss 7540490
Core_0_LLC_writebacks 3459218
Core_0_LLC_writeback_hit 772900
Core_0_LLC_writeback_miss 2686318
Core_0_LLC_prefetch_requested 0
Core_0_LLC_prefetch_dropped 0
Core_0_LLC_prefetch_issued 0
Core_0_LLC_prefetch_filled 10048943
Core_0_LLC_prefetch_useful 396660
Core_0_LLC_prefetch_useless 9645204
Core_0_LLC_prefetch_late 9492
Core_0_LLC_average_miss_latency 242.85355

Core_0_LLC_rq_access 2020511
Core_0_LLC_rq_forward 0
Core_0_LLC_rq_merged 0
Core_0_LLC_rq_to_cache 2020511
Core_0_LLC_rq_full 0

Core_0_LLC_wq_access 3459218
Core_0_LLC_wq_forward 0
Core_0_LLC_wq_merged 0
Core_0_LLC_wq_to_cache 3459218
Core_0_LLC_wq_full 0

Core_0_LLC_pq_access 10403264
Core_0_LLC_pq_forward 0
Core_0_LLC_pq_merged 0
Core_0_LLC_pq_to_cache 10403264
Core_0_LLC_pq_full 0

Core_0_LLC_acc_epochs 743165
Core_0_LLC_acc_level_0 631419
Core_0_LLC_acc_level_1 40707
Core_0_LLC_acc_level_2 19330
Core_0_LLC_acc_level_3 15020
Core_0_LLC_acc_level_4 6937
Core_0_LLC_acc_level_5 9291
Core_0_LLC_acc_level_6 4800
Core_0_LLC_acc_level_7 6418
Core_0_LLC_acc_level_8 2182
Core_0_LLC_acc_level_9 7061

Core_0_major_page_fault 0
Core_0_minor_page_fault 159461

[Bingo] PHT Access: 1532225
[Bingo] PHT Hit PC+Addr: 16533
[Bingo] PHT Hit PC+Offs: 1181055
[Bingo] PHT Miss: 334637
[Bingo] Prefetch PC+Addr: 0
[Bingo] Prefetch PC+Offs: 0
[Bingo] Useful PC+Addr: 0
[Bingo] Useful PC+Offs: 0
[Bingo] Useless PC+Addr: 0
[Bingo] Useless PC+Offs: 0
[Bingo] L1 Prefetch per Region: 0.00000
[Bingo] L2 Prefetch per Region: 8.72707
[Bingo] L3 Prefetch per Region: 1.17334
[Bingo] No Prefetch per Region: 22.09959
[Bingo] Number of Voters Mean: 11.33001
[Bingo] Number of Voters SD: 5.04970

Channel_0_RQ_row_buffer_hit 6026935
Channel_0_RQ_row_buffer_miss 2866060
Channel_0_WQ_row_buffer_hit 562499
Channel_0_WQ_row_buffer_miss 2902840
Channel_0_WQ_full 791
Channel_0_dbus_congested 8953463

avg_congested_cycle 11

DRAM_bw_pochs 2972658
DRAM_bw_level_0 1945182
DRAM_bw_level_1 435759
DRAM_bw_level_2 173972
DRAM_bw_level_3 417745
