*************************************************
   ChampSim Multicore Out-of-Order Simulator
   Last compiled: Nov 21 2024 21:50:18
*************************************************
parsing config file: /home/shichen/os/compile-time-prefetcher-classification/ChampSim/config/pythia.ini

trace_0 /home/shichen/os/compile-time-prefetcher-classification/ChampSim/traces/462.libquantum-1343B.champsimtrace.xz
adding L2C_PREFETCHER: Scooby
Initialize SHIP state
warmup_instructions 100000000
simulation_instructions 500000000
champsim_seed 269
measure_ipc 0
measure_ipc_epoch 1000
measure_dram_bw 1
measure_dram_bw_epoch 256
measure_cache_acc 1
measure_cache_acc_epoch 1024
l1d_perfect 0
l2c_perfect 0
llc_perfect 0
l1d_semi_perfect 0
l2c_semi_perfect 0
llc_semi_perfect 0
semi_perfect_cache_page_buffer_size 64

num_cpus 1
cpu_freq 4000
dram_io_freq 2400
page_size 4096
block_size 64
max_read_per_cycle 8
max_fill_per_cycle 1
dram_channels 1
log2_dram_channels 0
dram_ranks 1
dram_banks 8
dram_rows 65536
dram_columns 128
dram_row_size 8
dram_size 4096
dram_pages 1048576

fetch_width 6
decode_width 6
exec_width 4
lq_width 2
sq_width 2
retire_width 4
scheduler_size 128
branch_mispredict_penalty 20
rob_size 256
lq_size 72
sq_size 56
num_instr_destinations_sparc 4
num_instr_destinations 2
num_instr_sources 4

itlb_set 16
itlb_way 8
itlb_rq_size 16
itlb_wq_size 16
itlb_pq_size 0
itlb_mshr_size 8
itlb_latency 1

dtlb_set 16
dtlb_way 4
dtlb_rq_size 16
dtlb_wq_size 16
dtlb_pq_size 0
dtlb_mshr_size 8
dtlb_latency 1

stlb_set 128
stlb_way 12
stlb_rq_size 32
stlb_wq_size 32
stlb_pq_size 0
stlb_mshr_size 16
stlb_latency 8

l1i_size 32
l1i_set 64
l1i_way 8
l1i_rq_size 64
l1i_wq_size 64
l1i_pq_size 8
l1i_mshr_size 8
l1i_latency 1

l1d_size 32
l1d_set 64
l1d_way 8
l1d_rq_size 64
l1d_wq_size 64
l1d_pq_size 8
l1d_mshr_size 16
l1d_latency 4

l2c_size 256
l2c_set 512
l2c_way 8
l2c_rq_size 32
l2c_wq_size 32
l2c_pq_size 32
l2c_mshr_size 32
l2c_latency 10

llc_size 2048
llc_set 2048
llc_way 16
llc_rq_size 32
llc_wq_size 32
llc_pq_size 32
llc_mshr_size 64
llc_latency 20

dram_channel_width 8
dram_wq_size 64
dram_rq_size 64
tRP 15
tRCD 15
tCAS 12.5
dram_dbus_turn_around_time 30
dram_write_high_wm 56
dram_write_low_wm 48
min_dram_writes_per_switch 16
dram_mtps 2400
dram_dbus_return_time 13

scooby_alpha 0.0065088
scooby_gamma 0.556301
scooby_epsilon 0.00182284
scooby_state_num_bits 10
scooby_max_states 1024
scooby_seed 200
scooby_policy EGreedy
scooby_learning_type SARSA
scooby_actions 1,3,4,5,10,11,12,22,23,30,32,-1,-3,-6,0,
scooby_max_actions 15
scooby_pt_size 256
scooby_st_size 64
scooby_max_pcs 5
scooby_max_offsets 5
scooby_max_deltas 5
scooby_reward_none -4
scooby_reward_incorrect -8
scooby_reward_correct_untimely 12
scooby_reward_correct_timely 20
scooby_brain_zero_init 0
scooby_enable_reward_all 0
scooby_enable_track_multiple 0
scooby_enable_reward_out_of_bounds 1
scooby_reward_out_of_bounds -12
scooby_state_type 1
scooby_state_hash_type 11
scooby_access_debug 0
scooby_print_access_debug 0
scooby_print_access_debug_pc deadbeef
scooby_print_access_debug_pc_count 0
scooby_print_trace 0
scooby_enable_state_action_stats 1
scooby_enable_reward_tracker_hit 0
scooby_reward_tracker_hit -2
scooby_enable_featurewise_engine 1
scooby_pref_degree 1
scooby_enable_dyn_degree 1
scooby_max_to_avg_q_thresholds 0.5,1,2,
scooby_dyn_degrees 1,2,4,4,
scooby_multi_deg_select_type 2
scooby_last_pref_offset_conf_thresholds 1,3,8,
scooby_dyn_degrees_type2 1,2,4,6,
scooby_action_tracker_size 2
scooby_high_bw_thresh 4
scooby_enable_hbw_reward 1
scooby_reward_hbw_correct_timely 20
scooby_reward_hbw_correct_untimely 12
scooby_reward_hbw_incorrect -14
scooby_reward_hbw_none -2
scooby_reward_hbw_out_of_bounds -12
scooby_reward_hbw_tracker_hit -2
scooby_last_pref_offset_conf_thresholds_hbw 1,3,8,
scooby_dyn_degrees_type2_hbw 1,2,4,6,

le_enable_trace 0
le_trace_interval 0
le_trace_file_name 
le_trace_state 0
le_enable_score_plot 0
le_plot_file_name 
le_plot_actions 
le_enable_action_trace 0
le_action_trace_interval 0
le_action_trace_name 
le_enable_action_plot 0

le_featurewise_active_features PC, PC_Delta
le_featurewise_num_tilings 3,3,
le_featurewise_num_tiles 128,128,
le_featurewise_hash_types 2,2,
le_featurewise_enable_tiling_offset 1,1,
le_featurewise_max_q_thresh 0.5
le_featurewise_enable_action_fallback 1
le_featurewise_feature_weights 1,1,
le_featurewise_enable_dynamic_weight 0
le_featurewise_weight_gradient 0.001
le_featurewise_disable_adjust_weight_all_features_align 1
le_featurewise_selective_update 0
le_featurewise_pooling_type 2
le_featurewise_enable_dyn_action_fallback 1
le_featurewise_bw_acc_check_level 1
le_featurewise_acc_thresh 2
le_featurewise_enable_trace 0
le_featurewise_trace_feature_type 0
le_featurewise_trace_feature 
le_featurewise_trace_interval 0
le_featurewise_trace_record_count 0
le_featurewise_trace_file_name 
le_featurewise_enable_score_plot 0
le_featurewise_plot_actions 
le_featurewise_plot_file_name 


Heartbeat CPU  0 instructions:    1000000 cycles:     616498 heartbeat IPC: 1.62207 cumulative IPC: 1.62207 (Simulation time: 0 hr 0 min 1 sec) 
Heartbeat CPU  0 instructions:    2000001 cycles:    1196809 heartbeat IPC: 1.72322 cumulative IPC: 1.67111 (Simulation time: 0 hr 0 min 3 sec) 
Heartbeat CPU  0 instructions:    3000000 cycles:    1726000 heartbeat IPC: 1.88968 cumulative IPC: 1.73812 (Simulation time: 0 hr 0 min 4 sec) 
Heartbeat CPU  0 instructions:    4000000 cycles:    2254293 heartbeat IPC: 1.89289 cumulative IPC: 1.77439 (Simulation time: 0 hr 0 min 5 sec) 
Heartbeat CPU  0 instructions:    5000000 cycles:    2782858 heartbeat IPC: 1.89191 cumulative IPC: 1.79671 (Simulation time: 0 hr 0 min 6 sec) 
Heartbeat CPU  0 instructions:    6000000 cycles:    3311805 heartbeat IPC: 1.89055 cumulative IPC: 1.81170 (Simulation time: 0 hr 0 min 8 sec) 
Heartbeat CPU  0 instructions:    7000003 cycles:    3840641 heartbeat IPC: 1.89095 cumulative IPC: 1.82261 (Simulation time: 0 hr 0 min 9 sec) 
Heartbeat CPU  0 instructions:    8000000 cycles:    4369504 heartbeat IPC: 1.89084 cumulative IPC: 1.83087 (Simulation time: 0 hr 0 min 10 sec) 
Heartbeat CPU  0 instructions:    9000002 cycles:    4897597 heartbeat IPC: 1.89361 cumulative IPC: 1.83764 (Simulation time: 0 hr 0 min 12 sec) 
Heartbeat CPU  0 instructions:   10000002 cycles:    5426169 heartbeat IPC: 1.89189 cumulative IPC: 1.84292 (Simulation time: 0 hr 0 min 13 sec) 
Heartbeat CPU  0 instructions:   11000001 cycles:    5954694 heartbeat IPC: 1.89206 cumulative IPC: 1.84728 (Simulation time: 0 hr 0 min 14 sec) 
Heartbeat CPU  0 instructions:   12000000 cycles:    6483283 heartbeat IPC: 1.89183 cumulative IPC: 1.85091 (Simulation time: 0 hr 0 min 15 sec) 
Heartbeat CPU  0 instructions:   13000002 cycles:    7011137 heartbeat IPC: 1.89447 cumulative IPC: 1.85419 (Simulation time: 0 hr 0 min 17 sec) 
Heartbeat CPU  0 instructions:   14000003 cycles:    7539896 heartbeat IPC: 1.89122 cumulative IPC: 1.85679 (Simulation time: 0 hr 0 min 18 sec) 
Heartbeat CPU  0 instructions:   15000000 cycles:    8068923 heartbeat IPC: 1.89026 cumulative IPC: 1.85898 (Simulation time: 0 hr 0 min 19 sec) 
Heartbeat CPU  0 instructions:   16000000 cycles:    8597815 heartbeat IPC: 1.89075 cumulative IPC: 1.86094 (Simulation time: 0 hr 0 min 21 sec) 
Heartbeat CPU  0 instructions:   17000000 cycles:    9125670 heartbeat IPC: 1.89446 cumulative IPC: 1.86288 (Simulation time: 0 hr 0 min 22 sec) 
Heartbeat CPU  0 instructions:   18000000 cycles:    9654338 heartbeat IPC: 1.89155 cumulative IPC: 1.86445 (Simulation time: 0 hr 0 min 23 sec) 
Heartbeat CPU  0 instructions:   19000001 cycles:   10183022 heartbeat IPC: 1.89149 cumulative IPC: 1.86585 (Simulation time: 0 hr 0 min 25 sec) 
Heartbeat CPU  0 instructions:   20000000 cycles:   10711913 heartbeat IPC: 1.89075 cumulative IPC: 1.86708 (Simulation time: 0 hr 0 min 26 sec) 
Heartbeat CPU  0 instructions:   21000000 cycles:   11239849 heartbeat IPC: 1.89417 cumulative IPC: 1.86835 (Simulation time: 0 hr 0 min 27 sec) 
Heartbeat CPU  0 instructions:   22000000 cycles:   11768204 heartbeat IPC: 1.89267 cumulative IPC: 1.86944 (Simulation time: 0 hr 0 min 28 sec) 
Heartbeat CPU  0 instructions:   23000000 cycles:   12296590 heartbeat IPC: 1.89256 cumulative IPC: 1.87044 (Simulation time: 0 hr 0 min 30 sec) 
Heartbeat CPU  0 instructions:   24000000 cycles:   12825162 heartbeat IPC: 1.89189 cumulative IPC: 1.87132 (Simulation time: 0 hr 0 min 31 sec) 
Heartbeat CPU  0 instructions:   25000000 cycles:   13458849 heartbeat IPC: 1.57807 cumulative IPC: 1.85751 (Simulation time: 0 hr 0 min 32 sec) 
Heartbeat CPU  0 instructions:   26000000 cycles:   14398315 heartbeat IPC: 1.06443 cumulative IPC: 1.80577 (Simulation time: 0 hr 0 min 34 sec) 
Heartbeat CPU  0 instructions:   27000000 cycles:   15334457 heartbeat IPC: 1.06821 cumulative IPC: 1.76074 (Simulation time: 0 hr 0 min 36 sec) 
Heartbeat CPU  0 instructions:   28000000 cycles:   16273555 heartbeat IPC: 1.06485 cumulative IPC: 1.72058 (Simulation time: 0 hr 0 min 38 sec) 
Heartbeat CPU  0 instructions:   29000002 cycles:   17209641 heartbeat IPC: 1.06828 cumulative IPC: 1.68510 (Simulation time: 0 hr 0 min 39 sec) 
Heartbeat CPU  0 instructions:   30000000 cycles:   18147781 heartbeat IPC: 1.06594 cumulative IPC: 1.65309 (Simulation time: 0 hr 0 min 41 sec) 
Heartbeat CPU  0 instructions:   31000001 cycles:   19084979 heartbeat IPC: 1.06701 cumulative IPC: 1.62431 (Simulation time: 0 hr 0 min 43 sec) 
Heartbeat CPU  0 instructions:   32000000 cycles:   20022190 heartbeat IPC: 1.06699 cumulative IPC: 1.59823 (Simulation time: 0 hr 0 min 45 sec) 
Heartbeat CPU  0 instructions:   33000002 cycles:   20961161 heartbeat IPC: 1.06500 cumulative IPC: 1.57434 (Simulation time: 0 hr 0 min 46 sec) 
Heartbeat CPU  0 instructions:   34000003 cycles:   21897357 heartbeat IPC: 1.06815 cumulative IPC: 1.55270 (Simulation time: 0 hr 0 min 48 sec) 
Heartbeat CPU  0 instructions:   35000002 cycles:   22835224 heartbeat IPC: 1.06625 cumulative IPC: 1.53272 (Simulation time: 0 hr 0 min 50 sec) 
Heartbeat CPU  0 instructions:   36000000 cycles:   23772444 heartbeat IPC: 1.06698 cumulative IPC: 1.51436 (Simulation time: 0 hr 0 min 51 sec) 
Heartbeat CPU  0 instructions:   37000002 cycles:   24709729 heartbeat IPC: 1.06691 cumulative IPC: 1.49739 (Simulation time: 0 hr 0 min 53 sec) 
Heartbeat CPU  0 instructions:   38000002 cycles:   25648363 heartbeat IPC: 1.06538 cumulative IPC: 1.48158 (Simulation time: 0 hr 0 min 55 sec) 
Heartbeat CPU  0 instructions:   39000002 cycles:   26584457 heartbeat IPC: 1.06827 cumulative IPC: 1.46702 (Simulation time: 0 hr 0 min 57 sec) 
Heartbeat CPU  0 instructions:   40000000 cycles:   27523732 heartbeat IPC: 1.06465 cumulative IPC: 1.45329 (Simulation time: 0 hr 0 min 58 sec) 
Heartbeat CPU  0 instructions:   41000000 cycles:   28461870 heartbeat IPC: 1.06594 cumulative IPC: 1.44052 (Simulation time: 0 hr 1 min 0 sec) 
Heartbeat CPU  0 instructions:   42000001 cycles:   29399750 heartbeat IPC: 1.06624 cumulative IPC: 1.42858 (Simulation time: 0 hr 1 min 2 sec) 
Heartbeat CPU  0 instructions:   43000003 cycles:   30339843 heartbeat IPC: 1.06373 cumulative IPC: 1.41728 (Simulation time: 0 hr 1 min 4 sec) 
Heartbeat CPU  0 instructions:   44000000 cycles:   31276821 heartbeat IPC: 1.06726 cumulative IPC: 1.40679 (Simulation time: 0 hr 1 min 5 sec) 
Heartbeat CPU  0 instructions:   45000000 cycles:   31995889 heartbeat IPC: 1.39069 cumulative IPC: 1.40643 (Simulation time: 0 hr 1 min 7 sec) 
Heartbeat CPU  0 instructions:   46000000 cycles:   32518190 heartbeat IPC: 1.91460 cumulative IPC: 1.41459 (Simulation time: 0 hr 1 min 10 sec) 
Heartbeat CPU  0 instructions:   47000003 cycles:   33040517 heartbeat IPC: 1.91452 cumulative IPC: 1.42250 (Simulation time: 0 hr 1 min 12 sec) 
Heartbeat CPU  0 instructions:   48000000 cycles:   33562818 heartbeat IPC: 1.91460 cumulative IPC: 1.43015 (Simulation time: 0 hr 1 min 15 sec) 
Heartbeat CPU  0 instructions:   49000003 cycles:   34085166 heartbeat IPC: 1.91444 cumulative IPC: 1.43758 (Simulation time: 0 hr 1 min 17 sec) 
Heartbeat CPU  0 instructions:   50000003 cycles:   34607466 heartbeat IPC: 1.91461 cumulative IPC: 1.44477 (Simulation time: 0 hr 1 min 19 sec) 
Heartbeat CPU  0 instructions:   51000002 cycles:   35129791 heartbeat IPC: 1.91451 cumulative IPC: 1.45176 (Simulation time: 0 hr 1 min 22 sec) 
Heartbeat CPU  0 instructions:   52000000 cycles:   35652089 heartbeat IPC: 1.91461 cumulative IPC: 1.45854 (Simulation time: 0 hr 1 min 24 sec) 
Heartbeat CPU  0 instructions:   53000003 cycles:   36174438 heartbeat IPC: 1.91443 cumulative IPC: 1.46512 (Simulation time: 0 hr 1 min 27 sec) 
Heartbeat CPU  0 instructions:   54000003 cycles:   36696733 heartbeat IPC: 1.91463 cumulative IPC: 1.47152 (Simulation time: 0 hr 1 min 29 sec) 
Heartbeat CPU  0 instructions:   55000002 cycles:   37219053 heartbeat IPC: 1.91453 cumulative IPC: 1.47774 (Simulation time: 0 hr 1 min 32 sec) 
Heartbeat CPU  0 instructions:   56000000 cycles:   37741353 heartbeat IPC: 1.91460 cumulative IPC: 1.48378 (Simulation time: 0 hr 1 min 34 sec) 
Heartbeat CPU  0 instructions:   57000003 cycles:   38263698 heartbeat IPC: 1.91445 cumulative IPC: 1.48966 (Simulation time: 0 hr 1 min 36 sec) 
Heartbeat CPU  0 instructions:   58000003 cycles:   38785998 heartbeat IPC: 1.91461 cumulative IPC: 1.49539 (Simulation time: 0 hr 1 min 39 sec) 
Heartbeat CPU  0 instructions:   59000002 cycles:   39308319 heartbeat IPC: 1.91453 cumulative IPC: 1.50095 (Simulation time: 0 hr 1 min 41 sec) 
Heartbeat CPU  0 instructions:   60000000 cycles:   39919407 heartbeat IPC: 1.63642 cumulative IPC: 1.50303 (Simulation time: 0 hr 1 min 43 sec) 
Heartbeat CPU  0 instructions:   61000003 cycles:   40538028 heartbeat IPC: 1.61650 cumulative IPC: 1.50476 (Simulation time: 0 hr 1 min 44 sec) 
Heartbeat CPU  0 instructions:   62000003 cycles:   41157164 heartbeat IPC: 1.61515 cumulative IPC: 1.50642 (Simulation time: 0 hr 1 min 45 sec) 
Heartbeat CPU  0 instructions:   63000003 cycles:   41775664 heartbeat IPC: 1.61681 cumulative IPC: 1.50806 (Simulation time: 0 hr 1 min 47 sec) 
Heartbeat CPU  0 instructions:   64000000 cycles:   42393731 heartbeat IPC: 1.61794 cumulative IPC: 1.50966 (Simulation time: 0 hr 1 min 48 sec) 
Heartbeat CPU  0 instructions:   65000000 cycles:   43011909 heartbeat IPC: 1.61766 cumulative IPC: 1.51121 (Simulation time: 0 hr 1 min 49 sec) 
Heartbeat CPU  0 instructions:   66000003 cycles:   43630304 heartbeat IPC: 1.61709 cumulative IPC: 1.51271 (Simulation time: 0 hr 1 min 51 sec) 
Heartbeat CPU  0 instructions:   67000003 cycles:   44249226 heartbeat IPC: 1.61571 cumulative IPC: 1.51415 (Simulation time: 0 hr 1 min 52 sec) 
Heartbeat CPU  0 instructions:   68000000 cycles:   44868298 heartbeat IPC: 1.61532 cumulative IPC: 1.51555 (Simulation time: 0 hr 1 min 53 sec) 
Heartbeat CPU  0 instructions:   69000003 cycles:   45486729 heartbeat IPC: 1.61700 cumulative IPC: 1.51693 (Simulation time: 0 hr 1 min 54 sec) 
Heartbeat CPU  0 instructions:   70000003 cycles:   46104634 heartbeat IPC: 1.61837 cumulative IPC: 1.51829 (Simulation time: 0 hr 1 min 56 sec) 
Heartbeat CPU  0 instructions:   71000003 cycles:   46722716 heartbeat IPC: 1.61791 cumulative IPC: 1.51960 (Simulation time: 0 hr 1 min 57 sec) 
Heartbeat CPU  0 instructions:   72000000 cycles:   47341445 heartbeat IPC: 1.61621 cumulative IPC: 1.52087 (Simulation time: 0 hr 1 min 58 sec) 
Heartbeat CPU  0 instructions:   73000003 cycles:   47960300 heartbeat IPC: 1.61589 cumulative IPC: 1.52209 (Simulation time: 0 hr 2 min 0 sec) 
Heartbeat CPU  0 instructions:   74000003 cycles:   48579255 heartbeat IPC: 1.61563 cumulative IPC: 1.52328 (Simulation time: 0 hr 2 min 1 sec) 
Heartbeat CPU  0 instructions:   75000003 cycles:   49197561 heartbeat IPC: 1.61732 cumulative IPC: 1.52447 (Simulation time: 0 hr 2 min 2 sec) 
Heartbeat CPU  0 instructions:   76000000 cycles:   49815365 heartbeat IPC: 1.61863 cumulative IPC: 1.52563 (Simulation time: 0 hr 2 min 4 sec) 
Heartbeat CPU  0 instructions:   77000002 cycles:   50434050 heartbeat IPC: 1.61633 cumulative IPC: 1.52675 (Simulation time: 0 hr 2 min 5 sec) 
Heartbeat CPU  0 instructions:   78000001 cycles:   51052909 heartbeat IPC: 1.61588 cumulative IPC: 1.52783 (Simulation time: 0 hr 2 min 6 sec) 
Heartbeat CPU  0 instructions:   79000000 cycles:   51671962 heartbeat IPC: 1.61537 cumulative IPC: 1.52888 (Simulation time: 0 hr 2 min 7 sec) 
Heartbeat CPU  0 instructions:   80000000 cycles:   52291480 heartbeat IPC: 1.61416 cumulative IPC: 1.52989 (Simulation time: 0 hr 2 min 9 sec) 
Heartbeat CPU  0 instructions:   81000000 cycles:   52909505 heartbeat IPC: 1.61806 cumulative IPC: 1.53092 (Simulation time: 0 hr 2 min 10 sec) 
Heartbeat CPU  0 instructions:   82000000 cycles:   53527865 heartbeat IPC: 1.61718 cumulative IPC: 1.53191 (Simulation time: 0 hr 2 min 11 sec) 
Heartbeat CPU  0 instructions:   83000000 cycles:   54096019 heartbeat IPC: 1.76009 cumulative IPC: 1.53431 (Simulation time: 0 hr 2 min 13 sec) 
Heartbeat CPU  0 instructions:   84000000 cycles:   54622530 heartbeat IPC: 1.89930 cumulative IPC: 1.53783 (Simulation time: 0 hr 2 min 14 sec) 
Heartbeat CPU  0 instructions:   85000000 cycles:   55150020 heartbeat IPC: 1.89577 cumulative IPC: 1.54125 (Simulation time: 0 hr 2 min 15 sec) 
Heartbeat CPU  0 instructions:   86000000 cycles:   55677331 heartbeat IPC: 1.89641 cumulative IPC: 1.54461 (Simulation time: 0 hr 2 min 17 sec) 
Heartbeat CPU  0 instructions:   87000002 cycles:   56204078 heartbeat IPC: 1.89845 cumulative IPC: 1.54793 (Simulation time: 0 hr 2 min 18 sec) 
Heartbeat CPU  0 instructions:   88000000 cycles:   56730000 heartbeat IPC: 1.90142 cumulative IPC: 1.55121 (Simulation time: 0 hr 2 min 19 sec) 
Heartbeat CPU  0 instructions:   89000001 cycles:   57255679 heartbeat IPC: 1.90230 cumulative IPC: 1.55443 (Simulation time: 0 hr 2 min 20 sec) 
Heartbeat CPU  0 instructions:   90000001 cycles:   57782922 heartbeat IPC: 1.89666 cumulative IPC: 1.55755 (Simulation time: 0 hr 2 min 22 sec) 
Heartbeat CPU  0 instructions:   91000001 cycles:   58310054 heartbeat IPC: 1.89706 cumulative IPC: 1.56062 (Simulation time: 0 hr 2 min 23 sec) 
Heartbeat CPU  0 instructions:   92000000 cycles:   58837212 heartbeat IPC: 1.89696 cumulative IPC: 1.56364 (Simulation time: 0 hr 2 min 24 sec) 
Heartbeat CPU  0 instructions:   93000000 cycles:   59364087 heartbeat IPC: 1.89798 cumulative IPC: 1.56660 (Simulation time: 0 hr 2 min 26 sec) 
Heartbeat CPU  0 instructions:   94000000 cycles:   59889968 heartbeat IPC: 1.90157 cumulative IPC: 1.56955 (Simulation time: 0 hr 2 min 27 sec) 
Heartbeat CPU  0 instructions:   95000002 cycles:   60415751 heartbeat IPC: 1.90193 cumulative IPC: 1.57244 (Simulation time: 0 hr 2 min 28 sec) 
Heartbeat CPU  0 instructions:   96000000 cycles:   60942968 heartbeat IPC: 1.89675 cumulative IPC: 1.57524 (Simulation time: 0 hr 2 min 30 sec) 
Heartbeat CPU  0 instructions:   97000003 cycles:   61470270 heartbeat IPC: 1.89645 cumulative IPC: 1.57800 (Simulation time: 0 hr 2 min 31 sec) 
Heartbeat CPU  0 instructions:   98000001 cycles:   61997291 heartbeat IPC: 1.89745 cumulative IPC: 1.58071 (Simulation time: 0 hr 2 min 32 sec) 
Heartbeat CPU  0 instructions:   99000000 cycles:   62523388 heartbeat IPC: 1.90079 cumulative IPC: 1.58341 (Simulation time: 0 hr 2 min 33 sec) 
Heartbeat CPU  0 instructions:  100000000 cycles:   63049700 heartbeat IPC: 1.90001 cumulative IPC: 1.58605 (Simulation time: 0 hr 2 min 35 sec) 

Warmup complete CPU  0 instructions:  100000001 cycles:   63049701 (Simulation time: 0 hr 2 min 35 sec) 

Heartbeat CPU  0 instructions:  101000001 cycles:   64131536 heartbeat IPC: 0.92436 cumulative IPC: 0.92436 (Simulation time: 0 hr 2 min 37 sec) 
Heartbeat CPU  0 instructions:  102000000 cycles:   65209994 heartbeat IPC: 0.92725 cumulative IPC: 0.92580 (Simulation time: 0 hr 2 min 40 sec) 
Heartbeat CPU  0 instructions:  103000003 cycles:   66281076 heartbeat IPC: 0.93364 cumulative IPC: 0.92840 (Simulation time: 0 hr 2 min 42 sec) 
Heartbeat CPU  0 instructions:  104000000 cycles:   67332613 heartbeat IPC: 0.95099 cumulative IPC: 0.93394 (Simulation time: 0 hr 2 min 44 sec) 
Heartbeat CPU  0 instructions:  105000001 cycles:   68400273 heartbeat IPC: 0.93663 cumulative IPC: 0.93448 (Simulation time: 0 hr 2 min 47 sec) 
Heartbeat CPU  0 instructions:  106000000 cycles:   69530181 heartbeat IPC: 0.88503 cumulative IPC: 0.92586 (Simulation time: 0 hr 2 min 49 sec) 
Heartbeat CPU  0 instructions:  107000003 cycles:   70818616 heartbeat IPC: 0.77614 cumulative IPC: 0.90103 (Simulation time: 0 hr 2 min 52 sec) 
Heartbeat CPU  0 instructions:  108000000 cycles:   72110647 heartbeat IPC: 0.77397 cumulative IPC: 0.88291 (Simulation time: 0 hr 2 min 54 sec) 
Heartbeat CPU  0 instructions:  109000001 cycles:   73399559 heartbeat IPC: 0.77585 cumulative IPC: 0.86958 (Simulation time: 0 hr 2 min 56 sec) 
Heartbeat CPU  0 instructions:  110000000 cycles:   74683990 heartbeat IPC: 0.77855 cumulative IPC: 0.85953 (Simulation time: 0 hr 2 min 59 sec) 
Heartbeat CPU  0 instructions:  111000003 cycles:   75999157 heartbeat IPC: 0.76036 cumulative IPC: 0.84946 (Simulation time: 0 hr 3 min 1 sec) 
Heartbeat CPU  0 instructions:  112000000 cycles:   77300074 heartbeat IPC: 0.76869 cumulative IPC: 0.84208 (Simulation time: 0 hr 3 min 4 sec) 
Heartbeat CPU  0 instructions:  113000001 cycles:   78571302 heartbeat IPC: 0.78664 cumulative IPC: 0.83754 (Simulation time: 0 hr 3 min 6 sec) 
Heartbeat CPU  0 instructions:  114000000 cycles:   79870989 heartbeat IPC: 0.76942 cumulative IPC: 0.83228 (Simulation time: 0 hr 3 min 9 sec) 
Heartbeat CPU  0 instructions:  115000001 cycles:   81162868 heartbeat IPC: 0.77407 cumulative IPC: 0.82813 (Simulation time: 0 hr 3 min 11 sec) 
Heartbeat CPU  0 instructions:  116000000 cycles:   82424088 heartbeat IPC: 0.79288 cumulative IPC: 0.82583 (Simulation time: 0 hr 3 min 14 sec) 
Heartbeat CPU  0 instructions:  117000000 cycles:   83668934 heartbeat IPC: 0.80331 cumulative IPC: 0.82447 (Simulation time: 0 hr 3 min 16 sec) 
Heartbeat CPU  0 instructions:  118000003 cycles:   84955744 heartbeat IPC: 0.77712 cumulative IPC: 0.82169 (Simulation time: 0 hr 3 min 18 sec) 
Heartbeat CPU  0 instructions:  119000002 cycles:   86236773 heartbeat IPC: 0.78062 cumulative IPC: 0.81942 (Simulation time: 0 hr 3 min 21 sec) 
Heartbeat CPU  0 instructions:  120000000 cycles:   87486961 heartbeat IPC: 0.79988 cumulative IPC: 0.81842 (Simulation time: 0 hr 3 min 23 sec) 
Heartbeat CPU  0 instructions:  121000000 cycles:   88761435 heartbeat IPC: 0.78464 cumulative IPC: 0.81675 (Simulation time: 0 hr 3 min 26 sec) 
Heartbeat CPU  0 instructions:  122000003 cycles:   90036807 heartbeat IPC: 0.78409 cumulative IPC: 0.81520 (Simulation time: 0 hr 3 min 28 sec) 
Heartbeat CPU  0 instructions:  123000002 cycles:   91301960 heartbeat IPC: 0.79042 cumulative IPC: 0.81409 (Simulation time: 0 hr 3 min 30 sec) 
Heartbeat CPU  0 instructions:  124000000 cycles:   92606063 heartbeat IPC: 0.76681 cumulative IPC: 0.81201 (Simulation time: 0 hr 3 min 33 sec) 
Heartbeat CPU  0 instructions:  125000003 cycles:   93916771 heartbeat IPC: 0.76295 cumulative IPC: 0.80992 (Simulation time: 0 hr 3 min 35 sec) 
Heartbeat CPU  0 instructions:  126000003 cycles:   95204927 heartbeat IPC: 0.77630 cumulative IPC: 0.80858 (Simulation time: 0 hr 3 min 38 sec) 
Heartbeat CPU  0 instructions:  127000003 cycles:   96471718 heartbeat IPC: 0.78940 cumulative IPC: 0.80785 (Simulation time: 0 hr 3 min 40 sec) 
Heartbeat CPU  0 instructions:  128000000 cycles:   97754195 heartbeat IPC: 0.77974 cumulative IPC: 0.80681 (Simulation time: 0 hr 3 min 43 sec) 
Heartbeat CPU  0 instructions:  129000002 cycles:   99031540 heartbeat IPC: 0.78288 cumulative IPC: 0.80596 (Simulation time: 0 hr 3 min 45 sec) 
Heartbeat CPU  0 instructions:  130000003 cycles:  100076952 heartbeat IPC: 0.95656 cumulative IPC: 0.81021 (Simulation time: 0 hr 3 min 47 sec) 
Heartbeat CPU  0 instructions:  131000000 cycles:  101094067 heartbeat IPC: 0.98317 cumulative IPC: 0.81484 (Simulation time: 0 hr 3 min 50 sec) 
Heartbeat CPU  0 instructions:  132000000 cycles:  102122859 heartbeat IPC: 0.97201 cumulative IPC: 0.81898 (Simulation time: 0 hr 3 min 52 sec) 
Heartbeat CPU  0 instructions:  133000002 cycles:  103144627 heartbeat IPC: 0.97870 cumulative IPC: 0.82305 (Simulation time: 0 hr 3 min 55 sec) 
Heartbeat CPU  0 instructions:  134000001 cycles:  104171831 heartbeat IPC: 0.97352 cumulative IPC: 0.82681 (Simulation time: 0 hr 3 min 57 sec) 
Heartbeat CPU  0 instructions:  135000000 cycles:  105199364 heartbeat IPC: 0.97320 cumulative IPC: 0.83037 (Simulation time: 0 hr 4 min 0 sec) 
Heartbeat CPU  0 instructions:  136000000 cycles:  106201829 heartbeat IPC: 0.99754 cumulative IPC: 0.83426 (Simulation time: 0 hr 4 min 2 sec) 
Heartbeat CPU  0 instructions:  137000002 cycles:  107225309 heartbeat IPC: 0.97706 cumulative IPC: 0.83757 (Simulation time: 0 hr 4 min 4 sec) 
Heartbeat CPU  0 instructions:  138000001 cycles:  108244408 heartbeat IPC: 0.98126 cumulative IPC: 0.84081 (Simulation time: 0 hr 4 min 7 sec) 
Heartbeat CPU  0 instructions:  139000000 cycles:  109262529 heartbeat IPC: 0.98220 cumulative IPC: 0.84392 (Simulation time: 0 hr 4 min 9 sec) 
Heartbeat CPU  0 instructions:  140000000 cycles:  110280544 heartbeat IPC: 0.98230 cumulative IPC: 0.84690 (Simulation time: 0 hr 4 min 12 sec) 
Heartbeat CPU  0 instructions:  141000003 cycles:  111291214 heartbeat IPC: 0.98945 cumulative IPC: 0.84989 (Simulation time: 0 hr 4 min 15 sec) 
Heartbeat CPU  0 instructions:  142000000 cycles:  112309788 heartbeat IPC: 0.98176 cumulative IPC: 0.85262 (Simulation time: 0 hr 4 min 17 sec) 
Heartbeat CPU  0 instructions:  143000000 cycles:  113332518 heartbeat IPC: 0.97778 cumulative IPC: 0.85516 (Simulation time: 0 hr 4 min 20 sec) 
Heartbeat CPU  0 instructions:  144000000 cycles:  114335020 heartbeat IPC: 0.99750 cumulative IPC: 0.85795 (Simulation time: 0 hr 4 min 22 sec) 
Heartbeat CPU  0 instructions:  145000001 cycles:  115349701 heartbeat IPC: 0.98553 cumulative IPC: 0.86042 (Simulation time: 0 hr 4 min 25 sec) 
Heartbeat CPU  0 instructions:  146000001 cycles:  116355983 heartbeat IPC: 0.99376 cumulative IPC: 0.86294 (Simulation time: 0 hr 4 min 27 sec) 
Heartbeat CPU  0 instructions:  147000003 cycles:  117364978 heartbeat IPC: 0.99109 cumulative IPC: 0.86532 (Simulation time: 0 hr 4 min 29 sec) 
Heartbeat CPU  0 instructions:  148000000 cycles:  118392457 heartbeat IPC: 0.97325 cumulative IPC: 0.86732 (Simulation time: 0 hr 4 min 32 sec) 
Heartbeat CPU  0 instructions:  149000002 cycles:  119396236 heartbeat IPC: 0.99624 cumulative IPC: 0.86962 (Simulation time: 0 hr 4 min 34 sec) 
Heartbeat CPU  0 instructions:  150000000 cycles:  120407718 heartbeat IPC: 0.98865 cumulative IPC: 0.87172 (Simulation time: 0 hr 4 min 37 sec) 
Heartbeat CPU  0 instructions:  151000002 cycles:  121414109 heartbeat IPC: 0.99365 cumulative IPC: 0.87382 (Simulation time: 0 hr 4 min 39 sec) 
Heartbeat CPU  0 instructions:  152000000 cycles:  122425170 heartbeat IPC: 0.98906 cumulative IPC: 0.87578 (Simulation time: 0 hr 4 min 41 sec) 
Heartbeat CPU  0 instructions:  153000000 cycles:  123713634 heartbeat IPC: 0.77612 cumulative IPC: 0.87367 (Simulation time: 0 hr 4 min 44 sec) 
Heartbeat CPU  0 instructions:  154000002 cycles:  124991975 heartbeat IPC: 0.78227 cumulative IPC: 0.87178 (Simulation time: 0 hr 4 min 46 sec) 
Heartbeat CPU  0 instructions:  155000001 cycles:  126281552 heartbeat IPC: 0.77545 cumulative IPC: 0.86981 (Simulation time: 0 hr 4 min 49 sec) 
Heartbeat CPU  0 instructions:  156000000 cycles:  127542823 heartbeat IPC: 0.79285 cumulative IPC: 0.86831 (Simulation time: 0 hr 4 min 51 sec) 
Heartbeat CPU  0 instructions:  157000003 cycles:  128858074 heartbeat IPC: 0.76031 cumulative IPC: 0.86615 (Simulation time: 0 hr 4 min 54 sec) 
Heartbeat CPU  0 instructions:  158000002 cycles:  130158534 heartbeat IPC: 0.76896 cumulative IPC: 0.86427 (Simulation time: 0 hr 4 min 56 sec) 
Heartbeat CPU  0 instructions:  159000001 cycles:  131435853 heartbeat IPC: 0.78289 cumulative IPC: 0.86275 (Simulation time: 0 hr 4 min 58 sec) 
Heartbeat CPU  0 instructions:  160000000 cycles:  132730434 heartbeat IPC: 0.77245 cumulative IPC: 0.86107 (Simulation time: 0 hr 5 min 1 sec) 
Heartbeat CPU  0 instructions:  161000003 cycles:  134055864 heartbeat IPC: 0.75447 cumulative IPC: 0.85908 (Simulation time: 0 hr 5 min 3 sec) 
Heartbeat CPU  0 instructions:  162000003 cycles:  135296528 heartbeat IPC: 0.80602 cumulative IPC: 0.85817 (Simulation time: 0 hr 5 min 6 sec) 
Heartbeat CPU  0 instructions:  163000003 cycles:  136571258 heartbeat IPC: 0.78448 cumulative IPC: 0.85689 (Simulation time: 0 hr 5 min 8 sec) 
Heartbeat CPU  0 instructions:  164000000 cycles:  137851720 heartbeat IPC: 0.78097 cumulative IPC: 0.85559 (Simulation time: 0 hr 5 min 10 sec) 
Heartbeat CPU  0 instructions:  165000003 cycles:  139132115 heartbeat IPC: 0.78101 cumulative IPC: 0.85434 (Simulation time: 0 hr 5 min 13 sec) 
Heartbeat CPU  0 instructions:  166000003 cycles:  140400230 heartbeat IPC: 0.78857 cumulative IPC: 0.85326 (Simulation time: 0 hr 5 min 15 sec) 
Heartbeat CPU  0 instructions:  167000003 cycles:  141670178 heartbeat IPC: 0.78743 cumulative IPC: 0.85220 (Simulation time: 0 hr 5 min 18 sec) 
Heartbeat CPU  0 instructions:  168000000 cycles:  142928465 heartbeat IPC: 0.79473 cumulative IPC: 0.85129 (Simulation time: 0 hr 5 min 20 sec) 
Heartbeat CPU  0 instructions:  169000003 cycles:  144209961 heartbeat IPC: 0.78034 cumulative IPC: 0.85017 (Simulation time: 0 hr 5 min 22 sec) 
Heartbeat CPU  0 instructions:  170000003 cycles:  145486593 heartbeat IPC: 0.78331 cumulative IPC: 0.84913 (Simulation time: 0 hr 5 min 25 sec) 
Heartbeat CPU  0 instructions:  171000003 cycles:  146811273 heartbeat IPC: 0.75490 cumulative IPC: 0.84764 (Simulation time: 0 hr 5 min 27 sec) 
Heartbeat CPU  0 instructions:  172000000 cycles:  148120573 heartbeat IPC: 0.76376 cumulative IPC: 0.84635 (Simulation time: 0 hr 5 min 30 sec) 
Heartbeat CPU  0 instructions:  173000003 cycles:  149381647 heartbeat IPC: 0.79298 cumulative IPC: 0.84557 (Simulation time: 0 hr 5 min 32 sec) 
Heartbeat CPU  0 instructions:  174000003 cycles:  150677934 heartbeat IPC: 0.77143 cumulative IPC: 0.84448 (Simulation time: 0 hr 5 min 35 sec) 
Heartbeat CPU  0 instructions:  175000003 cycles:  151967216 heartbeat IPC: 0.77563 cumulative IPC: 0.84348 (Simulation time: 0 hr 5 min 37 sec) 
Heartbeat CPU  0 instructions:  176000000 cycles:  153190289 heartbeat IPC: 0.81761 cumulative IPC: 0.84313 (Simulation time: 0 hr 5 min 39 sec) 
Heartbeat CPU  0 instructions:  177000003 cycles:  154329719 heartbeat IPC: 0.87763 cumulative IPC: 0.84356 (Simulation time: 0 hr 5 min 42 sec) 
Heartbeat CPU  0 instructions:  178000003 cycles:  155475908 heartbeat IPC: 0.87246 cumulative IPC: 0.84392 (Simulation time: 0 hr 5 min 44 sec) 
Heartbeat CPU  0 instructions:  179000000 cycles:  156632863 heartbeat IPC: 0.86434 cumulative IPC: 0.84417 (Simulation time: 0 hr 5 min 47 sec) 
Heartbeat CPU  0 instructions:  180000000 cycles:  157796852 heartbeat IPC: 0.85911 cumulative IPC: 0.84435 (Simulation time: 0 hr 5 min 49 sec) 
Heartbeat CPU  0 instructions:  181000002 cycles:  158981555 heartbeat IPC: 0.84410 cumulative IPC: 0.84435 (Simulation time: 0 hr 5 min 52 sec) 
Heartbeat CPU  0 instructions:  182000001 cycles:  160138833 heartbeat IPC: 0.86410 cumulative IPC: 0.84458 (Simulation time: 0 hr 5 min 54 sec) 
Heartbeat CPU  0 instructions:  183000001 cycles:  161274127 heartbeat IPC: 0.88083 cumulative IPC: 0.84500 (Simulation time: 0 hr 5 min 56 sec) 
Heartbeat CPU  0 instructions:  184000000 cycles:  162437446 heartbeat IPC: 0.85961 cumulative IPC: 0.84517 (Simulation time: 0 hr 5 min 59 sec) 
Heartbeat CPU  0 instructions:  185000000 cycles:  163564975 heartbeat IPC: 0.88690 cumulative IPC: 0.84564 (Simulation time: 0 hr 6 min 1 sec) 
Heartbeat CPU  0 instructions:  186000000 cycles:  164696914 heartbeat IPC: 0.88344 cumulative IPC: 0.84606 (Simulation time: 0 hr 6 min 4 sec) 
Heartbeat CPU  0 instructions:  187000002 cycles:  165829373 heartbeat IPC: 0.88304 cumulative IPC: 0.84647 (Simulation time: 0 hr 6 min 6 sec) 
Heartbeat CPU  0 instructions:  188000000 cycles:  166954918 heartbeat IPC: 0.88846 cumulative IPC: 0.84693 (Simulation time: 0 hr 6 min 8 sec) 
Heartbeat CPU  0 instructions:  189000003 cycles:  168070177 heartbeat IPC: 0.89666 cumulative IPC: 0.84745 (Simulation time: 0 hr 6 min 11 sec) 
Heartbeat CPU  0 instructions:  190000003 cycles:  169167246 heartbeat IPC: 0.91152 cumulative IPC: 0.84812 (Simulation time: 0 hr 6 min 13 sec) 
Heartbeat CPU  0 instructions:  191000003 cycles:  170290270 heartbeat IPC: 0.89045 cumulative IPC: 0.84856 (Simulation time: 0 hr 6 min 16 sec) 
Heartbeat CPU  0 instructions:  192000000 cycles:  171417369 heartbeat IPC: 0.88723 cumulative IPC: 0.84896 (Simulation time: 0 hr 6 min 18 sec) 
Heartbeat CPU  0 instructions:  193000000 cycles:  172533717 heartbeat IPC: 0.89578 cumulative IPC: 0.84944 (Simulation time: 0 hr 6 min 21 sec) 
Heartbeat CPU  0 instructions:  194000000 cycles:  173670586 heartbeat IPC: 0.87961 cumulative IPC: 0.84975 (Simulation time: 0 hr 6 min 23 sec) 
Heartbeat CPU  0 instructions:  195000000 cycles:  174801921 heartbeat IPC: 0.88391 cumulative IPC: 0.85009 (Simulation time: 0 hr 6 min 25 sec) 
Heartbeat CPU  0 instructions:  196000000 cycles:  175926913 heartbeat IPC: 0.88890 cumulative IPC: 0.85048 (Simulation time: 0 hr 6 min 28 sec) 
Heartbeat CPU  0 instructions:  197000001 cycles:  177048625 heartbeat IPC: 0.89150 cumulative IPC: 0.85089 (Simulation time: 0 hr 6 min 30 sec) 
Heartbeat CPU  0 instructions:  198000001 cycles:  178170022 heartbeat IPC: 0.89174 cumulative IPC: 0.85128 (Simulation time: 0 hr 6 min 33 sec) 
Heartbeat CPU  0 instructions:  199000003 cycles:  179678967 heartbeat IPC: 0.66272 cumulative IPC: 0.84884 (Simulation time: 0 hr 6 min 35 sec) 
Heartbeat CPU  0 instructions:  200000000 cycles:  181867250 heartbeat IPC: 0.45698 cumulative IPC: 0.84163 (Simulation time: 0 hr 6 min 38 sec) 
Heartbeat CPU  0 instructions:  201000001 cycles:  184096366 heartbeat IPC: 0.44861 cumulative IPC: 0.83439 (Simulation time: 0 hr 6 min 40 sec) 
Heartbeat CPU  0 instructions:  202000000 cycles:  186237311 heartbeat IPC: 0.46708 cumulative IPC: 0.82801 (Simulation time: 0 hr 6 min 43 sec) 
Heartbeat CPU  0 instructions:  203000001 cycles:  188510540 heartbeat IPC: 0.43990 cumulative IPC: 0.82097 (Simulation time: 0 hr 6 min 45 sec) 
Heartbeat CPU  0 instructions:  204000000 cycles:  190691752 heartbeat IPC: 0.45846 cumulative IPC: 0.81478 (Simulation time: 0 hr 6 min 48 sec) 
Heartbeat CPU  0 instructions:  205000000 cycles:  192855968 heartbeat IPC: 0.46206 cumulative IPC: 0.80890 (Simulation time: 0 hr 6 min 51 sec) 
Heartbeat CPU  0 instructions:  206000001 cycles:  195088127 heartbeat IPC: 0.44800 cumulative IPC: 0.80280 (Simulation time: 0 hr 6 min 53 sec) 
Heartbeat CPU  0 instructions:  207000000 cycles:  197187517 heartbeat IPC: 0.47633 cumulative IPC: 0.79769 (Simulation time: 0 hr 6 min 56 sec) 
Heartbeat CPU  0 instructions:  208000000 cycles:  199304430 heartbeat IPC: 0.47239 cumulative IPC: 0.79263 (Simulation time: 0 hr 6 min 58 sec) 
Heartbeat CPU  0 instructions:  209000000 cycles:  201470642 heartbeat IPC: 0.46164 cumulative IPC: 0.78745 (Simulation time: 0 hr 7 min 1 sec) 
Heartbeat CPU  0 instructions:  210000000 cycles:  203656355 heartbeat IPC: 0.45752 cumulative IPC: 0.78232 (Simulation time: 0 hr 7 min 3 sec) 
Heartbeat CPU  0 instructions:  211000000 cycles:  205765782 heartbeat IPC: 0.47406 cumulative IPC: 0.77777 (Simulation time: 0 hr 7 min 6 sec) 
Heartbeat CPU  0 instructions:  212000000 cycles:  207908099 heartbeat IPC: 0.46678 cumulative IPC: 0.77317 (Simulation time: 0 hr 7 min 9 sec) 
Heartbeat CPU  0 instructions:  213000003 cycles:  210047867 heartbeat IPC: 0.46734 cumulative IPC: 0.76872 (Simulation time: 0 hr 7 min 11 sec) 
Heartbeat CPU  0 instructions:  214000002 cycles:  212198347 heartbeat IPC: 0.46501 cumulative IPC: 0.76434 (Simulation time: 0 hr 7 min 14 sec) 
Heartbeat CPU  0 instructions:  215000002 cycles:  214453182 heartbeat IPC: 0.44349 cumulative IPC: 0.75956 (Simulation time: 0 hr 7 min 16 sec) 
Heartbeat CPU  0 instructions:  216000000 cycles:  216593891 heartbeat IPC: 0.46713 cumulative IPC: 0.75548 (Simulation time: 0 hr 7 min 19 sec) 
Heartbeat CPU  0 instructions:  217000001 cycles:  218751480 heartbeat IPC: 0.46348 cumulative IPC: 0.75144 (Simulation time: 0 hr 7 min 21 sec) 
Heartbeat CPU  0 instructions:  218000000 cycles:  220952447 heartbeat IPC: 0.45435 cumulative IPC: 0.74730 (Simulation time: 0 hr 7 min 24 sec) 
Heartbeat CPU  0 instructions:  219000000 cycles:  223104627 heartbeat IPC: 0.46465 cumulative IPC: 0.74349 (Simulation time: 0 hr 7 min 27 sec) 
Heartbeat CPU  0 instructions:  220000000 cycles:  225243948 heartbeat IPC: 0.46744 cumulative IPC: 0.73985 (Simulation time: 0 hr 7 min 31 sec) 
Heartbeat CPU  0 instructions:  221000000 cycles:  227392416 heartbeat IPC: 0.46545 cumulative IPC: 0.73627 (Simulation time: 0 hr 7 min 35 sec) 
Heartbeat CPU  0 instructions:  222000000 cycles:  229538073 heartbeat IPC: 0.46606 cumulative IPC: 0.73278 (Simulation time: 0 hr 7 min 39 sec) 
Heartbeat CPU  0 instructions:  223000000 cycles:  231689004 heartbeat IPC: 0.46491 cumulative IPC: 0.72937 (Simulation time: 0 hr 7 min 43 sec) 
Heartbeat CPU  0 instructions:  224000000 cycles:  233817595 heartbeat IPC: 0.46979 cumulative IPC: 0.72613 (Simulation time: 0 hr 7 min 47 sec) 
Heartbeat CPU  0 instructions:  225000000 cycles:  235951687 heartbeat IPC: 0.46858 cumulative IPC: 0.72295 (Simulation time: 0 hr 7 min 51 sec) 
Heartbeat CPU  0 instructions:  226000000 cycles:  238082517 heartbeat IPC: 0.46930 cumulative IPC: 0.71987 (Simulation time: 0 hr 7 min 55 sec) 
Heartbeat CPU  0 instructions:  227000000 cycles:  240224475 heartbeat IPC: 0.46686 cumulative IPC: 0.71681 (Simulation time: 0 hr 7 min 59 sec) 
Heartbeat CPU  0 instructions:  228000000 cycles:  242353826 heartbeat IPC: 0.46963 cumulative IPC: 0.71387 (Simulation time: 0 hr 8 min 3 sec) 
Heartbeat CPU  0 instructions:  229000000 cycles:  244486586 heartbeat IPC: 0.46888 cumulative IPC: 0.71099 (Simulation time: 0 hr 8 min 7 sec) 
Heartbeat CPU  0 instructions:  230000000 cycles:  246641612 heartbeat IPC: 0.46403 cumulative IPC: 0.70809 (Simulation time: 0 hr 8 min 11 sec) 
Heartbeat CPU  0 instructions:  231000000 cycles:  248760612 heartbeat IPC: 0.47192 cumulative IPC: 0.70540 (Simulation time: 0 hr 8 min 15 sec) 
Heartbeat CPU  0 instructions:  232000000 cycles:  250908793 heartbeat IPC: 0.46551 cumulative IPC: 0.70265 (Simulation time: 0 hr 8 min 19 sec) 
Heartbeat CPU  0 instructions:  233000001 cycles:  253025508 heartbeat IPC: 0.47243 cumulative IPC: 0.70009 (Simulation time: 0 hr 8 min 23 sec) 
Heartbeat CPU  0 instructions:  234000000 cycles:  254402950 heartbeat IPC: 0.72598 cumulative IPC: 0.70028 (Simulation time: 0 hr 8 min 26 sec) 
Heartbeat CPU  0 instructions:  235000003 cycles:  255678305 heartbeat IPC: 0.78410 cumulative IPC: 0.70083 (Simulation time: 0 hr 8 min 28 sec) 
Heartbeat CPU  0 instructions:  236000000 cycles:  256978039 heartbeat IPC: 0.76939 cumulative IPC: 0.70129 (Simulation time: 0 hr 8 min 31 sec) 
Heartbeat CPU  0 instructions:  237000001 cycles:  258243867 heartbeat IPC: 0.79000 cumulative IPC: 0.70187 (Simulation time: 0 hr 8 min 33 sec) 
Heartbeat CPU  0 instructions:  238000000 cycles:  259566018 heartbeat IPC: 0.75634 cumulative IPC: 0.70223 (Simulation time: 0 hr 8 min 36 sec) 
Heartbeat CPU  0 instructions:  239000002 cycles:  260862840 heartbeat IPC: 0.77112 cumulative IPC: 0.70268 (Simulation time: 0 hr 8 min 38 sec) 
Heartbeat CPU  0 instructions:  240000000 cycles:  262133351 heartbeat IPC: 0.78708 cumulative IPC: 0.70322 (Simulation time: 0 hr 8 min 41 sec) 
Heartbeat CPU  0 instructions:  241000000 cycles:  263439046 heartbeat IPC: 0.76588 cumulative IPC: 0.70363 (Simulation time: 0 hr 8 min 43 sec) 
Heartbeat CPU  0 instructions:  242000003 cycles:  264770546 heartbeat IPC: 0.75103 cumulative IPC: 0.70394 (Simulation time: 0 hr 8 min 45 sec) 
Heartbeat CPU  0 instructions:  243000002 cycles:  266028526 heartbeat IPC: 0.79492 cumulative IPC: 0.70451 (Simulation time: 0 hr 8 min 48 sec) 
Heartbeat CPU  0 instructions:  244000000 cycles:  267311808 heartbeat IPC: 0.77925 cumulative IPC: 0.70498 (Simulation time: 0 hr 8 min 50 sec) 
Heartbeat CPU  0 instructions:  245000001 cycles:  268604635 heartbeat IPC: 0.77350 cumulative IPC: 0.70541 (Simulation time: 0 hr 8 min 53 sec) 
Heartbeat CPU  0 instructions:  246000002 cycles:  269908512 heartbeat IPC: 0.76694 cumulative IPC: 0.70580 (Simulation time: 0 hr 8 min 55 sec) 
Heartbeat CPU  0 instructions:  247000000 cycles:  271168438 heartbeat IPC: 0.79370 cumulative IPC: 0.70633 (Simulation time: 0 hr 8 min 58 sec) 
Heartbeat CPU  0 instructions:  248000000 cycles:  272449456 heartbeat IPC: 0.78063 cumulative IPC: 0.70678 (Simulation time: 0 hr 9 min 0 sec) 
Heartbeat CPU  0 instructions:  249000001 cycles:  273717164 heartbeat IPC: 0.78883 cumulative IPC: 0.70728 (Simulation time: 0 hr 9 min 2 sec) 
Heartbeat CPU  0 instructions:  250000003 cycles:  274997848 heartbeat IPC: 0.78083 cumulative IPC: 0.70772 (Simulation time: 0 hr 9 min 5 sec) 
Heartbeat CPU  0 instructions:  251000000 cycles:  276292438 heartbeat IPC: 0.77244 cumulative IPC: 0.70811 (Simulation time: 0 hr 9 min 7 sec) 
Heartbeat CPU  0 instructions:  252000000 cycles:  277637728 heartbeat IPC: 0.74333 cumulative IPC: 0.70833 (Simulation time: 0 hr 9 min 10 sec) 
Heartbeat CPU  0 instructions:  253000000 cycles:  278930670 heartbeat IPC: 0.77343 cumulative IPC: 0.70872 (Simulation time: 0 hr 9 min 12 sec) 
Heartbeat CPU  0 instructions:  254000001 cycles:  280210158 heartbeat IPC: 0.78156 cumulative IPC: 0.70915 (Simulation time: 0 hr 9 min 15 sec) 
Heartbeat CPU  0 instructions:  255000002 cycles:  281525463 heartbeat IPC: 0.76028 cumulative IPC: 0.70946 (Simulation time: 0 hr 9 min 17 sec) 
Heartbeat CPU  0 instructions:  256000000 cycles:  282808285 heartbeat IPC: 0.77953 cumulative IPC: 0.70987 (Simulation time: 0 hr 9 min 20 sec) 
Heartbeat CPU  0 instructions:  257000001 cycles:  284619079 heartbeat IPC: 0.55224 cumulative IPC: 0.70858 (Simulation time: 0 hr 9 min 22 sec) 
Heartbeat CPU  0 instructions:  258000002 cycles:  286589539 heartbeat IPC: 0.50750 cumulative IPC: 0.70681 (Simulation time: 0 hr 9 min 25 sec) 
Heartbeat CPU  0 instructions:  259000000 cycles:  288573840 heartbeat IPC: 0.50395 cumulative IPC: 0.70502 (Simulation time: 0 hr 9 min 27 sec) 
Heartbeat CPU  0 instructions:  260000000 cycles:  290598918 heartbeat IPC: 0.49381 cumulative IPC: 0.70314 (Simulation time: 0 hr 9 min 30 sec) 
Heartbeat CPU  0 instructions:  261000003 cycles:  292635485 heartbeat IPC: 0.49102 cumulative IPC: 0.70126 (Simulation time: 0 hr 9 min 32 sec) 
Heartbeat CPU  0 instructions:  262000003 cycles:  294632092 heartbeat IPC: 0.50085 cumulative IPC: 0.69954 (Simulation time: 0 hr 9 min 35 sec) 
Heartbeat CPU  0 instructions:  263000000 cycles:  296577679 heartbeat IPC: 0.51398 cumulative IPC: 0.69799 (Simulation time: 0 hr 9 min 37 sec) 
Heartbeat CPU  0 instructions:  264000000 cycles:  298620048 heartbeat IPC: 0.48963 cumulative IPC: 0.69618 (Simulation time: 0 hr 9 min 40 sec) 
Heartbeat CPU  0 instructions:  265000003 cycles:  300604671 heartbeat IPC: 0.50388 cumulative IPC: 0.69458 (Simulation time: 0 hr 9 min 42 sec) 
Heartbeat CPU  0 instructions:  266000000 cycles:  302589400 heartbeat IPC: 0.50385 cumulative IPC: 0.69300 (Simulation time: 0 hr 9 min 45 sec) 
Heartbeat CPU  0 instructions:  267000001 cycles:  304572635 heartbeat IPC: 0.50423 cumulative IPC: 0.69145 (Simulation time: 0 hr 9 min 47 sec) 
Heartbeat CPU  0 instructions:  268000000 cycles:  306500311 heartbeat IPC: 0.51876 cumulative IPC: 0.69008 (Simulation time: 0 hr 9 min 50 sec) 
Heartbeat CPU  0 instructions:  269000000 cycles:  308464336 heartbeat IPC: 0.50916 cumulative IPC: 0.68863 (Simulation time: 0 hr 9 min 52 sec) 
Heartbeat CPU  0 instructions:  270000000 cycles:  310448047 heartbeat IPC: 0.50411 cumulative IPC: 0.68715 (Simulation time: 0 hr 9 min 55 sec) 
Heartbeat CPU  0 instructions:  271000002 cycles:  312413713 heartbeat IPC: 0.50873 cumulative IPC: 0.68574 (Simulation time: 0 hr 9 min 57 sec) 
Heartbeat CPU  0 instructions:  272000000 cycles:  314452373 heartbeat IPC: 0.49052 cumulative IPC: 0.68416 (Simulation time: 0 hr 10 min 0 sec) 
Heartbeat CPU  0 instructions:  273000001 cycles:  316452475 heartbeat IPC: 0.49997 cumulative IPC: 0.68271 (Simulation time: 0 hr 10 min 3 sec) 
Heartbeat CPU  0 instructions:  274000003 cycles:  318424913 heartbeat IPC: 0.50699 cumulative IPC: 0.68135 (Simulation time: 0 hr 10 min 5 sec) 
Heartbeat CPU  0 instructions:  275000002 cycles:  320432699 heartbeat IPC: 0.49806 cumulative IPC: 0.67992 (Simulation time: 0 hr 10 min 8 sec) 
Heartbeat CPU  0 instructions:  276000000 cycles:  322450165 heartbeat IPC: 0.49567 cumulative IPC: 0.67849 (Simulation time: 0 hr 10 min 10 sec) 
Heartbeat CPU  0 instructions:  277000003 cycles:  324621672 heartbeat IPC: 0.46051 cumulative IPC: 0.67668 (Simulation time: 0 hr 10 min 14 sec) 
Heartbeat CPU  0 instructions:  278000003 cycles:  326765669 heartbeat IPC: 0.46642 cumulative IPC: 0.67497 (Simulation time: 0 hr 10 min 18 sec) 
Heartbeat CPU  0 instructions:  279000003 cycles:  328917691 heartbeat IPC: 0.46468 cumulative IPC: 0.67327 (Simulation time: 0 hr 10 min 22 sec) 
Heartbeat CPU  0 instructions:  280000000 cycles:  331061084 heartbeat IPC: 0.46655 cumulative IPC: 0.67161 (Simulation time: 0 hr 10 min 26 sec) 
Heartbeat CPU  0 instructions:  281000003 cycles:  333223205 heartbeat IPC: 0.46251 cumulative IPC: 0.66994 (Simulation time: 0 hr 10 min 30 sec) 
Heartbeat CPU  0 instructions:  282000003 cycles:  335367722 heartbeat IPC: 0.46631 cumulative IPC: 0.66834 (Simulation time: 0 hr 10 min 34 sec) 
Heartbeat CPU  0 instructions:  283000003 cycles:  337515284 heartbeat IPC: 0.46564 cumulative IPC: 0.66675 (Simulation time: 0 hr 10 min 38 sec) 
Heartbeat CPU  0 instructions:  284000000 cycles:  339629851 heartbeat IPC: 0.47291 cumulative IPC: 0.66527 (Simulation time: 0 hr 10 min 42 sec) 
Heartbeat CPU  0 instructions:  285000003 cycles:  341770086 heartbeat IPC: 0.46724 cumulative IPC: 0.66375 (Simulation time: 0 hr 10 min 46 sec) 
Heartbeat CPU  0 instructions:  286000003 cycles:  343892357 heartbeat IPC: 0.47119 cumulative IPC: 0.66229 (Simulation time: 0 hr 10 min 50 sec) 
Heartbeat CPU  0 instructions:  287000003 cycles:  346021321 heartbeat IPC: 0.46971 cumulative IPC: 0.66084 (Simulation time: 0 hr 10 min 54 sec) 
Heartbeat CPU  0 instructions:  288000000 cycles:  348187802 heartbeat IPC: 0.46158 cumulative IPC: 0.65933 (Simulation time: 0 hr 10 min 58 sec) 
Heartbeat CPU  0 instructions:  289000003 cycles:  350322047 heartbeat IPC: 0.46855 cumulative IPC: 0.65791 (Simulation time: 0 hr 11 min 2 sec) 
Heartbeat CPU  0 instructions:  290000003 cycles:  352458463 heartbeat IPC: 0.46807 cumulative IPC: 0.65651 (Simulation time: 0 hr 11 min 6 sec) 
Heartbeat CPU  0 instructions:  291000002 cycles:  354560433 heartbeat IPC: 0.47574 cumulative IPC: 0.65521 (Simulation time: 0 hr 11 min 9 sec) 
Heartbeat CPU  0 instructions:  292000000 cycles:  356459489 heartbeat IPC: 0.52658 cumulative IPC: 0.65437 (Simulation time: 0 hr 11 min 12 sec) 
Heartbeat CPU  0 instructions:  293000002 cycles:  358399533 heartbeat IPC: 0.51545 cumulative IPC: 0.65346 (Simulation time: 0 hr 11 min 14 sec) 
Heartbeat CPU  0 instructions:  294000000 cycles:  360357420 heartbeat IPC: 0.51075 cumulative IPC: 0.65252 (Simulation time: 0 hr 11 min 17 sec) 
Heartbeat CPU  0 instructions:  295000002 cycles:  362335824 heartbeat IPC: 0.50546 cumulative IPC: 0.65155 (Simulation time: 0 hr 11 min 19 sec) 
Heartbeat CPU  0 instructions:  296000000 cycles:  364291514 heartbeat IPC: 0.51133 cumulative IPC: 0.65064 (Simulation time: 0 hr 11 min 22 sec) 
Heartbeat CPU  0 instructions:  297000002 cycles:  366209586 heartbeat IPC: 0.52136 cumulative IPC: 0.64982 (Simulation time: 0 hr 11 min 24 sec) 
Heartbeat CPU  0 instructions:  298000000 cycles:  368216080 heartbeat IPC: 0.49838 cumulative IPC: 0.64883 (Simulation time: 0 hr 11 min 27 sec) 
Heartbeat CPU  0 instructions:  299000000 cycles:  370141090 heartbeat IPC: 0.51948 cumulative IPC: 0.64802 (Simulation time: 0 hr 11 min 29 sec) 
Heartbeat CPU  0 instructions:  300000000 cycles:  372011578 heartbeat IPC: 0.53462 cumulative IPC: 0.64733 (Simulation time: 0 hr 11 min 32 sec) 
Heartbeat CPU  0 instructions:  301000000 cycles:  373944725 heartbeat IPC: 0.51729 cumulative IPC: 0.64652 (Simulation time: 0 hr 11 min 34 sec) 
Heartbeat CPU  0 instructions:  302000000 cycles:  375831600 heartbeat IPC: 0.52998 cumulative IPC: 0.64582 (Simulation time: 0 hr 11 min 37 sec) 
Heartbeat CPU  0 instructions:  303000000 cycles:  377764474 heartbeat IPC: 0.51736 cumulative IPC: 0.64503 (Simulation time: 0 hr 11 min 39 sec) 
Heartbeat CPU  0 instructions:  304000000 cycles:  379718097 heartbeat IPC: 0.51187 cumulative IPC: 0.64421 (Simulation time: 0 hr 11 min 42 sec) 
Heartbeat CPU  0 instructions:  305000000 cycles:  381614690 heartbeat IPC: 0.52726 cumulative IPC: 0.64351 (Simulation time: 0 hr 11 min 44 sec) 
Heartbeat CPU  0 instructions:  306000000 cycles:  383609602 heartbeat IPC: 0.50128 cumulative IPC: 0.64263 (Simulation time: 0 hr 11 min 47 sec) 
Heartbeat CPU  0 instructions:  307000001 cycles:  385601070 heartbeat IPC: 0.50214 cumulative IPC: 0.64176 (Simulation time: 0 hr 11 min 50 sec) 
Heartbeat CPU  0 instructions:  308000000 cycles:  387501114 heartbeat IPC: 0.52630 cumulative IPC: 0.64108 (Simulation time: 0 hr 11 min 52 sec) 
Heartbeat CPU  0 instructions:  309000000 cycles:  389493883 heartbeat IPC: 0.50181 cumulative IPC: 0.64023 (Simulation time: 0 hr 11 min 55 sec) 
Heartbeat CPU  0 instructions:  310000003 cycles:  391453796 heartbeat IPC: 0.51023 cumulative IPC: 0.63946 (Simulation time: 0 hr 11 min 57 sec) 
Heartbeat CPU  0 instructions:  311000003 cycles:  393694743 heartbeat IPC: 0.44624 cumulative IPC: 0.63815 (Simulation time: 0 hr 12 min 1 sec) 
Heartbeat CPU  0 instructions:  312000000 cycles:  395913636 heartbeat IPC: 0.45067 cumulative IPC: 0.63690 (Simulation time: 0 hr 12 min 5 sec) 
Heartbeat CPU  0 instructions:  313000003 cycles:  398125869 heartbeat IPC: 0.45203 cumulative IPC: 0.63568 (Simulation time: 0 hr 12 min 9 sec) 
Heartbeat CPU  0 instructions:  314000003 cycles:  400345115 heartbeat IPC: 0.45060 cumulative IPC: 0.63446 (Simulation time: 0 hr 12 min 13 sec) 
Heartbeat CPU  0 instructions:  315000003 cycles:  402597624 heartbeat IPC: 0.44395 cumulative IPC: 0.63319 (Simulation time: 0 hr 12 min 17 sec) 
Heartbeat CPU  0 instructions:  316000000 cycles:  404780092 heartbeat IPC: 0.45820 cumulative IPC: 0.63208 (Simulation time: 0 hr 12 min 20 sec) 
Heartbeat CPU  0 instructions:  317000003 cycles:  407011743 heartbeat IPC: 0.44810 cumulative IPC: 0.63088 (Simulation time: 0 hr 12 min 24 sec) 
Heartbeat CPU  0 instructions:  318000003 cycles:  409217540 heartbeat IPC: 0.45335 cumulative IPC: 0.62975 (Simulation time: 0 hr 12 min 28 sec) 
Heartbeat CPU  0 instructions:  319000003 cycles:  411433111 heartbeat IPC: 0.45135 cumulative IPC: 0.62862 (Simulation time: 0 hr 12 min 32 sec) 
Heartbeat CPU  0 instructions:  320000000 cycles:  413640893 heartbeat IPC: 0.45294 cumulative IPC: 0.62751 (Simulation time: 0 hr 12 min 36 sec) 
Heartbeat CPU  0 instructions:  321000003 cycles:  415832460 heartbeat IPC: 0.45630 cumulative IPC: 0.62645 (Simulation time: 0 hr 12 min 39 sec) 
Heartbeat CPU  0 instructions:  322000003 cycles:  418042557 heartbeat IPC: 0.45247 cumulative IPC: 0.62536 (Simulation time: 0 hr 12 min 43 sec) 
Heartbeat CPU  0 instructions:  323000003 cycles:  420265806 heartbeat IPC: 0.44979 cumulative IPC: 0.62427 (Simulation time: 0 hr 12 min 47 sec) 
Heartbeat CPU  0 instructions:  324000000 cycles:  422488282 heartbeat IPC: 0.44995 cumulative IPC: 0.62319 (Simulation time: 0 hr 12 min 51 sec) 
Heartbeat CPU  0 instructions:  325000002 cycles:  424463845 heartbeat IPC: 0.50619 cumulative IPC: 0.62255 (Simulation time: 0 hr 12 min 54 sec) 
Heartbeat CPU  0 instructions:  326000001 cycles:  426077927 heartbeat IPC: 0.61955 cumulative IPC: 0.62254 (Simulation time: 0 hr 12 min 56 sec) 
Heartbeat CPU  0 instructions:  327000000 cycles:  427696614 heartbeat IPC: 0.61778 cumulative IPC: 0.62252 (Simulation time: 0 hr 12 min 59 sec) 
Heartbeat CPU  0 instructions:  328000000 cycles:  429307132 heartbeat IPC: 0.62092 cumulative IPC: 0.62251 (Simulation time: 0 hr 13 min 1 sec) 
Heartbeat CPU  0 instructions:  329000001 cycles:  430968081 heartbeat IPC: 0.60207 cumulative IPC: 0.62242 (Simulation time: 0 hr 13 min 4 sec) 
Heartbeat CPU  0 instructions:  330000001 cycles:  432621428 heartbeat IPC: 0.60483 cumulative IPC: 0.62234 (Simulation time: 0 hr 13 min 7 sec) 
Heartbeat CPU  0 instructions:  331000001 cycles:  434266879 heartbeat IPC: 0.60774 cumulative IPC: 0.62228 (Simulation time: 0 hr 13 min 9 sec) 
Heartbeat CPU  0 instructions:  332000000 cycles:  435934233 heartbeat IPC: 0.59975 cumulative IPC: 0.62218 (Simulation time: 0 hr 13 min 12 sec) 
Heartbeat CPU  0 instructions:  333000000 cycles:  437522311 heartbeat IPC: 0.62969 cumulative IPC: 0.62221 (Simulation time: 0 hr 13 min 14 sec) 
Heartbeat CPU  0 instructions:  334000000 cycles:  439133205 heartbeat IPC: 0.62077 cumulative IPC: 0.62220 (Simulation time: 0 hr 13 min 17 sec) 
Heartbeat CPU  0 instructions:  335000003 cycles:  440769813 heartbeat IPC: 0.61102 cumulative IPC: 0.62215 (Simulation time: 0 hr 13 min 19 sec) 
Heartbeat CPU  0 instructions:  336000000 cycles:  442374979 heartbeat IPC: 0.62299 cumulative IPC: 0.62216 (Simulation time: 0 hr 13 min 22 sec) 
Heartbeat CPU  0 instructions:  337000003 cycles:  443974054 heartbeat IPC: 0.62536 cumulative IPC: 0.62217 (Simulation time: 0 hr 13 min 24 sec) 
Heartbeat CPU  0 instructions:  338000001 cycles:  445620429 heartbeat IPC: 0.60739 cumulative IPC: 0.62211 (Simulation time: 0 hr 13 min 27 sec) 
Heartbeat CPU  0 instructions:  339000000 cycles:  447233562 heartbeat IPC: 0.61991 cumulative IPC: 0.62210 (Simulation time: 0 hr 13 min 29 sec) 
Heartbeat CPU  0 instructions:  340000000 cycles:  448904161 heartbeat IPC: 0.59859 cumulative IPC: 0.62200 (Simulation time: 0 hr 13 min 32 sec) 
Heartbeat CPU  0 instructions:  341000002 cycles:  450581743 heartbeat IPC: 0.59610 cumulative IPC: 0.62188 (Simulation time: 0 hr 13 min 34 sec) 
Heartbeat CPU  0 instructions:  342000001 cycles:  452209071 heartbeat IPC: 0.61450 cumulative IPC: 0.62185 (Simulation time: 0 hr 13 min 37 sec) 
Heartbeat CPU  0 instructions:  343000001 cycles:  453869235 heartbeat IPC: 0.60235 cumulative IPC: 0.62177 (Simulation time: 0 hr 13 min 39 sec) 
Heartbeat CPU  0 instructions:  344000000 cycles:  455428407 heartbeat IPC: 0.64137 cumulative IPC: 0.62185 (Simulation time: 0 hr 13 min 42 sec) 
Heartbeat CPU  0 instructions:  345000002 cycles:  456728227 heartbeat IPC: 0.76934 cumulative IPC: 0.62234 (Simulation time: 0 hr 13 min 44 sec) 
Heartbeat CPU  0 instructions:  346000002 cycles:  458012216 heartbeat IPC: 0.77882 cumulative IPC: 0.62284 (Simulation time: 0 hr 13 min 47 sec) 
Heartbeat CPU  0 instructions:  347000002 cycles:  459307734 heartbeat IPC: 0.77189 cumulative IPC: 0.62333 (Simulation time: 0 hr 13 min 49 sec) 
Heartbeat CPU  0 instructions:  348000000 cycles:  460597135 heartbeat IPC: 0.77555 cumulative IPC: 0.62382 (Simulation time: 0 hr 13 min 51 sec) 
Heartbeat CPU  0 instructions:  349000002 cycles:  461915433 heartbeat IPC: 0.75856 cumulative IPC: 0.62427 (Simulation time: 0 hr 13 min 54 sec) 
Heartbeat CPU  0 instructions:  350000002 cycles:  463215086 heartbeat IPC: 0.76944 cumulative IPC: 0.62474 (Simulation time: 0 hr 13 min 56 sec) 
Heartbeat CPU  0 instructions:  351000002 cycles:  464480568 heartbeat IPC: 0.79021 cumulative IPC: 0.62526 (Simulation time: 0 hr 13 min 59 sec) 
Heartbeat CPU  0 instructions:  352000000 cycles:  465777526 heartbeat IPC: 0.77103 cumulative IPC: 0.62573 (Simulation time: 0 hr 14 min 1 sec) 
Heartbeat CPU  0 instructions:  353000001 cycles:  467084364 heartbeat IPC: 0.76521 cumulative IPC: 0.62618 (Simulation time: 0 hr 14 min 4 sec) 
Heartbeat CPU  0 instructions:  354000000 cycles:  468361747 heartbeat IPC: 0.78285 cumulative IPC: 0.62668 (Simulation time: 0 hr 14 min 6 sec) 
Heartbeat CPU  0 instructions:  355000003 cycles:  469634891 heartbeat IPC: 0.78546 cumulative IPC: 0.62717 (Simulation time: 0 hr 14 min 8 sec) 
Heartbeat CPU  0 instructions:  356000000 cycles:  470918330 heartbeat IPC: 0.77915 cumulative IPC: 0.62765 (Simulation time: 0 hr 14 min 11 sec) 
Heartbeat CPU  0 instructions:  357000001 cycles:  472227767 heartbeat IPC: 0.76369 cumulative IPC: 0.62809 (Simulation time: 0 hr 14 min 13 sec) 
Heartbeat CPU  0 instructions:  358000000 cycles:  473471623 heartbeat IPC: 0.80395 cumulative IPC: 0.62862 (Simulation time: 0 hr 14 min 16 sec) 
Heartbeat CPU  0 instructions:  359000003 cycles:  474746772 heartbeat IPC: 0.78422 cumulative IPC: 0.62910 (Simulation time: 0 hr 14 min 18 sec) 
Heartbeat CPU  0 instructions:  360000000 cycles:  476035293 heartbeat IPC: 0.77608 cumulative IPC: 0.62956 (Simulation time: 0 hr 14 min 20 sec) 
Heartbeat CPU  0 instructions:  361000001 cycles:  477295201 heartbeat IPC: 0.79371 cumulative IPC: 0.63006 (Simulation time: 0 hr 14 min 23 sec) 
Heartbeat CPU  0 instructions:  362000000 cycles:  478589969 heartbeat IPC: 0.77234 cumulative IPC: 0.63050 (Simulation time: 0 hr 14 min 25 sec) 
Heartbeat CPU  0 instructions:  363000002 cycles:  479924878 heartbeat IPC: 0.74912 cumulative IPC: 0.63088 (Simulation time: 0 hr 14 min 28 sec) 
Heartbeat CPU  0 instructions:  364000000 cycles:  481218623 heartbeat IPC: 0.77295 cumulative IPC: 0.63132 (Simulation time: 0 hr 14 min 30 sec) 
Heartbeat CPU  0 instructions:  365000000 cycles:  482481851 heartbeat IPC: 0.79162 cumulative IPC: 0.63181 (Simulation time: 0 hr 14 min 33 sec) 
Heartbeat CPU  0 instructions:  366000003 cycles:  483768136 heartbeat IPC: 0.77744 cumulative IPC: 0.63225 (Simulation time: 0 hr 14 min 35 sec) 
Heartbeat CPU  0 instructions:  367000002 cycles:  485056303 heartbeat IPC: 0.77630 cumulative IPC: 0.63269 (Simulation time: 0 hr 14 min 37 sec) 
Heartbeat CPU  0 instructions:  368000000 cycles:  487229103 heartbeat IPC: 0.46023 cumulative IPC: 0.63181 (Simulation time: 0 hr 14 min 41 sec) 
Heartbeat CPU  0 instructions:  369000002 cycles:  489456539 heartbeat IPC: 0.44895 cumulative IPC: 0.63085 (Simulation time: 0 hr 14 min 45 sec) 
Heartbeat CPU  0 instructions:  370000002 cycles:  491720578 heartbeat IPC: 0.44169 cumulative IPC: 0.62985 (Simulation time: 0 hr 14 min 49 sec) 
Heartbeat CPU  0 instructions:  371000002 cycles:  493932003 heartbeat IPC: 0.45220 cumulative IPC: 0.62894 (Simulation time: 0 hr 14 min 52 sec) 
Heartbeat CPU  0 instructions:  372000000 cycles:  496156649 heartbeat IPC: 0.44951 cumulative IPC: 0.62802 (Simulation time: 0 hr 14 min 56 sec) 
Heartbeat CPU  0 instructions:  373000002 cycles:  498387103 heartbeat IPC: 0.44834 cumulative IPC: 0.62710 (Simulation time: 0 hr 15 min 0 sec) 
Heartbeat CPU  0 instructions:  374000002 cycles:  500607485 heartbeat IPC: 0.45037 cumulative IPC: 0.62620 (Simulation time: 0 hr 15 min 4 sec) 
Heartbeat CPU  0 instructions:  375000002 cycles:  502863549 heartbeat IPC: 0.44325 cumulative IPC: 0.62526 (Simulation time: 0 hr 15 min 8 sec) 
Heartbeat CPU  0 instructions:  376000000 cycles:  505071415 heartbeat IPC: 0.45293 cumulative IPC: 0.62440 (Simulation time: 0 hr 15 min 11 sec) 
Heartbeat CPU  0 instructions:  377000002 cycles:  507300792 heartbeat IPC: 0.44856 cumulative IPC: 0.62352 (Simulation time: 0 hr 15 min 15 sec) 
Heartbeat CPU  0 instructions:  378000002 cycles:  509522530 heartbeat IPC: 0.45010 cumulative IPC: 0.62266 (Simulation time: 0 hr 15 min 19 sec) 
Heartbeat CPU  0 instructions:  379000002 cycles:  511773735 heartbeat IPC: 0.44421 cumulative IPC: 0.62176 (Simulation time: 0 hr 15 min 23 sec) 
Heartbeat CPU  0 instructions:  380000000 cycles:  513968425 heartbeat IPC: 0.45564 cumulative IPC: 0.62095 (Simulation time: 0 hr 15 min 26 sec) 
Heartbeat CPU  0 instructions:  381000002 cycles:  516199951 heartbeat IPC: 0.44812 cumulative IPC: 0.62010 (Simulation time: 0 hr 15 min 30 sec) 
Heartbeat CPU  0 instructions:  382000003 cycles:  518451531 heartbeat IPC: 0.44413 cumulative IPC: 0.61923 (Simulation time: 0 hr 15 min 34 sec) 
Heartbeat CPU  0 instructions:  383000002 cycles:  520483868 heartbeat IPC: 0.49204 cumulative IPC: 0.61867 (Simulation time: 0 hr 15 min 36 sec) 
Heartbeat CPU  0 instructions:  384000000 cycles:  522525153 heartbeat IPC: 0.48989 cumulative IPC: 0.61810 (Simulation time: 0 hr 15 min 39 sec) 
Heartbeat CPU  0 instructions:  385000001 cycles:  524516899 heartbeat IPC: 0.50207 cumulative IPC: 0.61760 (Simulation time: 0 hr 15 min 41 sec) 
Heartbeat CPU  0 instructions:  386000001 cycles:  526637394 heartbeat IPC: 0.47159 cumulative IPC: 0.61693 (Simulation time: 0 hr 15 min 44 sec) 
Heartbeat CPU  0 instructions:  387000000 cycles:  528669466 heartbeat IPC: 0.49211 cumulative IPC: 0.61638 (Simulation time: 0 hr 15 min 47 sec) 
Heartbeat CPU  0 instructions:  388000000 cycles:  530673608 heartbeat IPC: 0.49897 cumulative IPC: 0.61588 (Simulation time: 0 hr 15 min 49 sec) 
Heartbeat CPU  0 instructions:  389000000 cycles:  532773636 heartbeat IPC: 0.47618 cumulative IPC: 0.61525 (Simulation time: 0 hr 15 min 52 sec) 
Heartbeat CPU  0 instructions:  390000003 cycles:  534748335 heartbeat IPC: 0.50641 cumulative IPC: 0.61480 (Simulation time: 0 hr 15 min 54 sec) 
Heartbeat CPU  0 instructions:  391000003 cycles:  536746999 heartbeat IPC: 0.50033 cumulative IPC: 0.61432 (Simulation time: 0 hr 15 min 57 sec) 
Heartbeat CPU  0 instructions:  392000000 cycles:  538782690 heartbeat IPC: 0.49123 cumulative IPC: 0.61379 (Simulation time: 0 hr 15 min 59 sec) 
Heartbeat CPU  0 instructions:  393000002 cycles:  540827671 heartbeat IPC: 0.48900 cumulative IPC: 0.61326 (Simulation time: 0 hr 16 min 2 sec) 
Heartbeat CPU  0 instructions:  394000000 cycles:  542786163 heartbeat IPC: 0.51060 cumulative IPC: 0.61284 (Simulation time: 0 hr 16 min 4 sec) 
Heartbeat CPU  0 instructions:  395000002 cycles:  544825999 heartbeat IPC: 0.49024 cumulative IPC: 0.61232 (Simulation time: 0 hr 16 min 7 sec) 
Heartbeat CPU  0 instructions:  396000000 cycles:  546853259 heartbeat IPC: 0.49328 cumulative IPC: 0.61182 (Simulation time: 0 hr 16 min 9 sec) 
Heartbeat CPU  0 instructions:  397000003 cycles:  548875501 heartbeat IPC: 0.49450 cumulative IPC: 0.61133 (Simulation time: 0 hr 16 min 12 sec) 
Heartbeat CPU  0 instructions:  398000000 cycles:  551005365 heartbeat IPC: 0.46951 cumulative IPC: 0.61071 (Simulation time: 0 hr 16 min 15 sec) 
Heartbeat CPU  0 instructions:  399000002 cycles:  553023710 heartbeat IPC: 0.49546 cumulative IPC: 0.61024 (Simulation time: 0 hr 16 min 17 sec) 
Heartbeat CPU  0 instructions:  400000000 cycles:  555041817 heartbeat IPC: 0.49551 cumulative IPC: 0.60977 (Simulation time: 0 hr 16 min 20 sec) 
Heartbeat CPU  0 instructions:  401000000 cycles:  557099896 heartbeat IPC: 0.48589 cumulative IPC: 0.60925 (Simulation time: 0 hr 16 min 22 sec) 
Heartbeat CPU  0 instructions:  402000003 cycles:  558654258 heartbeat IPC: 0.64335 cumulative IPC: 0.60936 (Simulation time: 0 hr 16 min 25 sec) 
Heartbeat CPU  0 instructions:  403000002 cycles:  559797900 heartbeat IPC: 0.87440 cumulative IPC: 0.60997 (Simulation time: 0 hr 16 min 27 sec) 
Heartbeat CPU  0 instructions:  404000000 cycles:  560974527 heartbeat IPC: 0.84989 cumulative IPC: 0.61053 (Simulation time: 0 hr 16 min 30 sec) 
Heartbeat CPU  0 instructions:  405000000 cycles:  562122780 heartbeat IPC: 0.87089 cumulative IPC: 0.61113 (Simulation time: 0 hr 16 min 32 sec) 
Heartbeat CPU  0 instructions:  406000002 cycles:  563283209 heartbeat IPC: 0.86175 cumulative IPC: 0.61171 (Simulation time: 0 hr 16 min 35 sec) 
Heartbeat CPU  0 instructions:  407000003 cycles:  564443353 heartbeat IPC: 0.86196 cumulative IPC: 0.61229 (Simulation time: 0 hr 16 min 37 sec) 
Heartbeat CPU  0 instructions:  408000000 cycles:  565591733 heartbeat IPC: 0.87079 cumulative IPC: 0.61288 (Simulation time: 0 hr 16 min 40 sec) 
Heartbeat CPU  0 instructions:  409000001 cycles:  566746981 heartbeat IPC: 0.86562 cumulative IPC: 0.61346 (Simulation time: 0 hr 16 min 42 sec) 
Heartbeat CPU  0 instructions:  410000000 cycles:  567917571 heartbeat IPC: 0.85427 cumulative IPC: 0.61402 (Simulation time: 0 hr 16 min 44 sec) 
Heartbeat CPU  0 instructions:  411000002 cycles:  569054779 heartbeat IPC: 0.87935 cumulative IPC: 0.61462 (Simulation time: 0 hr 16 min 47 sec) 
Heartbeat CPU  0 instructions:  412000000 cycles:  570203017 heartbeat IPC: 0.87090 cumulative IPC: 0.61520 (Simulation time: 0 hr 16 min 49 sec) 
Heartbeat CPU  0 instructions:  413000002 cycles:  571365866 heartbeat IPC: 0.85996 cumulative IPC: 0.61576 (Simulation time: 0 hr 16 min 52 sec) 
Heartbeat CPU  0 instructions:  414000001 cycles:  572516521 heartbeat IPC: 0.86907 cumulative IPC: 0.61633 (Simulation time: 0 hr 16 min 54 sec) 
Heartbeat CPU  0 instructions:  415000003 cycles:  573658668 heartbeat IPC: 0.87555 cumulative IPC: 0.61691 (Simulation time: 0 hr 16 min 57 sec) 
Heartbeat CPU  0 instructions:  416000000 cycles:  574795184 heartbeat IPC: 0.87988 cumulative IPC: 0.61749 (Simulation time: 0 hr 16 min 59 sec) 
Heartbeat CPU  0 instructions:  417000003 cycles:  575950829 heartbeat IPC: 0.86532 cumulative IPC: 0.61805 (Simulation time: 0 hr 17 min 2 sec) 
Heartbeat CPU  0 instructions:  418000000 cycles:  577087381 heartbeat IPC: 0.87985 cumulative IPC: 0.61863 (Simulation time: 0 hr 17 min 4 sec) 
Heartbeat CPU  0 instructions:  419000000 cycles:  578244714 heartbeat IPC: 0.86406 cumulative IPC: 0.61918 (Simulation time: 0 hr 17 min 7 sec) 
Heartbeat CPU  0 instructions:  420000000 cycles:  579391802 heartbeat IPC: 0.87177 cumulative IPC: 0.61974 (Simulation time: 0 hr 17 min 9 sec) 
Heartbeat CPU  0 instructions:  421000003 cycles:  580557135 heartbeat IPC: 0.85813 cumulative IPC: 0.62028 (Simulation time: 0 hr 17 min 12 sec) 
Heartbeat CPU  0 instructions:  422000000 cycles:  581717282 heartbeat IPC: 0.86196 cumulative IPC: 0.62082 (Simulation time: 0 hr 17 min 14 sec) 
Heartbeat CPU  0 instructions:  423000000 cycles:  582855028 heartbeat IPC: 0.87893 cumulative IPC: 0.62139 (Simulation time: 0 hr 17 min 16 sec) 
Heartbeat CPU  0 instructions:  424000000 cycles:  584001820 heartbeat IPC: 0.87200 cumulative IPC: 0.62194 (Simulation time: 0 hr 17 min 19 sec) 
Heartbeat CPU  0 instructions:  425000000 cycles:  585192257 heartbeat IPC: 0.84003 cumulative IPC: 0.62244 (Simulation time: 0 hr 17 min 21 sec) 
Heartbeat CPU  0 instructions:  426000000 cycles:  586495153 heartbeat IPC: 0.76752 cumulative IPC: 0.62280 (Simulation time: 0 hr 17 min 24 sec) 
Heartbeat CPU  0 instructions:  427000002 cycles:  587799528 heartbeat IPC: 0.76665 cumulative IPC: 0.62315 (Simulation time: 0 hr 17 min 26 sec) 
Heartbeat CPU  0 instructions:  428000000 cycles:  589107352 heartbeat IPC: 0.76463 cumulative IPC: 0.62351 (Simulation time: 0 hr 17 min 29 sec) 
Heartbeat CPU  0 instructions:  429000002 cycles:  590408835 heartbeat IPC: 0.76836 cumulative IPC: 0.62386 (Simulation time: 0 hr 17 min 31 sec) 
Heartbeat CPU  0 instructions:  430000000 cycles:  591717467 heartbeat IPC: 0.76416 cumulative IPC: 0.62421 (Simulation time: 0 hr 17 min 34 sec) 
Heartbeat CPU  0 instructions:  431000001 cycles:  593013477 heartbeat IPC: 0.77160 cumulative IPC: 0.62457 (Simulation time: 0 hr 17 min 36 sec) 
Heartbeat CPU  0 instructions:  432000000 cycles:  594295746 heartbeat IPC: 0.77987 cumulative IPC: 0.62495 (Simulation time: 0 hr 17 min 39 sec) 
Heartbeat CPU  0 instructions:  433000000 cycles:  595604535 heartbeat IPC: 0.76407 cumulative IPC: 0.62529 (Simulation time: 0 hr 17 min 41 sec) 
Heartbeat CPU  0 instructions:  434000000 cycles:  596906406 heartbeat IPC: 0.76813 cumulative IPC: 0.62564 (Simulation time: 0 hr 17 min 43 sec) 
Heartbeat CPU  0 instructions:  435000000 cycles:  598184058 heartbeat IPC: 0.78269 cumulative IPC: 0.62601 (Simulation time: 0 hr 17 min 46 sec) 
Heartbeat CPU  0 instructions:  436000000 cycles:  599450928 heartbeat IPC: 0.78935 cumulative IPC: 0.62640 (Simulation time: 0 hr 17 min 48 sec) 
Heartbeat CPU  0 instructions:  437000002 cycles:  600741865 heartbeat IPC: 0.77463 cumulative IPC: 0.62675 (Simulation time: 0 hr 17 min 51 sec) 
Heartbeat CPU  0 instructions:  438000001 cycles:  602046415 heartbeat IPC: 0.76655 cumulative IPC: 0.62709 (Simulation time: 0 hr 17 min 53 sec) 
Heartbeat CPU  0 instructions:  439000000 cycles:  603313996 heartbeat IPC: 0.78890 cumulative IPC: 0.62747 (Simulation time: 0 hr 17 min 56 sec) 
Heartbeat CPU  0 instructions:  440000000 cycles:  604596976 heartbeat IPC: 0.77944 cumulative IPC: 0.62783 (Simulation time: 0 hr 17 min 58 sec) 
Heartbeat CPU  0 instructions:  441000001 cycles:  605888572 heartbeat IPC: 0.77424 cumulative IPC: 0.62818 (Simulation time: 0 hr 18 min 1 sec) 
Heartbeat CPU  0 instructions:  442000000 cycles:  607148610 heartbeat IPC: 0.79363 cumulative IPC: 0.62856 (Simulation time: 0 hr 18 min 3 sec) 
Heartbeat CPU  0 instructions:  443000003 cycles:  608458110 heartbeat IPC: 0.76365 cumulative IPC: 0.62889 (Simulation time: 0 hr 18 min 5 sec) 
Heartbeat CPU  0 instructions:  444000000 cycles:  609777605 heartbeat IPC: 0.75786 cumulative IPC: 0.62920 (Simulation time: 0 hr 18 min 8 sec) 
Heartbeat CPU  0 instructions:  445000001 cycles:  611094503 heartbeat IPC: 0.75936 cumulative IPC: 0.62951 (Simulation time: 0 hr 18 min 10 sec) 
Heartbeat CPU  0 instructions:  446000000 cycles:  612383634 heartbeat IPC: 0.77572 cumulative IPC: 0.62985 (Simulation time: 0 hr 18 min 13 sec) 
Heartbeat CPU  0 instructions:  447000003 cycles:  613681036 heartbeat IPC: 0.77077 cumulative IPC: 0.63019 (Simulation time: 0 hr 18 min 15 sec) 
Heartbeat CPU  0 instructions:  448000000 cycles:  614979144 heartbeat IPC: 0.77035 cumulative IPC: 0.63052 (Simulation time: 0 hr 18 min 18 sec) 
Heartbeat CPU  0 instructions:  449000001 cycles:  616088243 heartbeat IPC: 0.90163 cumulative IPC: 0.63106 (Simulation time: 0 hr 18 min 20 sec) 
Heartbeat CPU  0 instructions:  450000000 cycles:  617156533 heartbeat IPC: 0.93607 cumulative IPC: 0.63165 (Simulation time: 0 hr 18 min 23 sec) 
Heartbeat CPU  0 instructions:  451000003 cycles:  618243482 heartbeat IPC: 0.92001 cumulative IPC: 0.63221 (Simulation time: 0 hr 18 min 25 sec) 
Heartbeat CPU  0 instructions:  452000000 cycles:  619337145 heartbeat IPC: 0.91436 cumulative IPC: 0.63277 (Simulation time: 0 hr 18 min 28 sec) 
Heartbeat CPU  0 instructions:  453000001 cycles:  620430393 heartbeat IPC: 0.91471 cumulative IPC: 0.63332 (Simulation time: 0 hr 18 min 30 sec) 
Heartbeat CPU  0 instructions:  454000000 cycles:  621509272 heartbeat IPC: 0.92689 cumulative IPC: 0.63389 (Simulation time: 0 hr 18 min 33 sec) 
Heartbeat CPU  0 instructions:  455000003 cycles:  622577983 heartbeat IPC: 0.93571 cumulative IPC: 0.63446 (Simulation time: 0 hr 18 min 35 sec) 
Heartbeat CPU  0 instructions:  456000000 cycles:  623659935 heartbeat IPC: 0.92425 cumulative IPC: 0.63502 (Simulation time: 0 hr 18 min 37 sec) 
Heartbeat CPU  0 instructions:  457000001 cycles:  624757922 heartbeat IPC: 0.91076 cumulative IPC: 0.63556 (Simulation time: 0 hr 18 min 40 sec) 
Heartbeat CPU  0 instructions:  458000000 cycles:  625834849 heartbeat IPC: 0.92857 cumulative IPC: 0.63612 (Simulation time: 0 hr 18 min 42 sec) 
Heartbeat CPU  0 instructions:  459000002 cycles:  626917971 heartbeat IPC: 0.92326 cumulative IPC: 0.63667 (Simulation time: 0 hr 18 min 45 sec) 
Heartbeat CPU  0 instructions:  460000000 cycles:  627992702 heartbeat IPC: 0.93046 cumulative IPC: 0.63723 (Simulation time: 0 hr 18 min 47 sec) 
Heartbeat CPU  0 instructions:  461000000 cycles:  629077531 heartbeat IPC: 0.92180 cumulative IPC: 0.63778 (Simulation time: 0 hr 18 min 50 sec) 
Heartbeat CPU  0 instructions:  462000002 cycles:  630145511 heartbeat IPC: 0.93635 cumulative IPC: 0.63834 (Simulation time: 0 hr 18 min 52 sec) 
Heartbeat CPU  0 instructions:  463000001 cycles:  631219813 heartbeat IPC: 0.93084 cumulative IPC: 0.63889 (Simulation time: 0 hr 18 min 54 sec) 
Heartbeat CPU  0 instructions:  464000000 cycles:  632309424 heartbeat IPC: 0.91776 cumulative IPC: 0.63943 (Simulation time: 0 hr 18 min 57 sec) 
Heartbeat CPU  0 instructions:  465000003 cycles:  633374923 heartbeat IPC: 0.93853 cumulative IPC: 0.63999 (Simulation time: 0 hr 18 min 59 sec) 
Heartbeat CPU  0 instructions:  466000000 cycles:  634457344 heartbeat IPC: 0.92385 cumulative IPC: 0.64052 (Simulation time: 0 hr 19 min 2 sec) 
Heartbeat CPU  0 instructions:  467000000 cycles:  635549940 heartbeat IPC: 0.91525 cumulative IPC: 0.64105 (Simulation time: 0 hr 19 min 4 sec) 
Heartbeat CPU  0 instructions:  468000000 cycles:  636635227 heartbeat IPC: 0.92142 cumulative IPC: 0.64158 (Simulation time: 0 hr 19 min 7 sec) 
Heartbeat CPU  0 instructions:  469000002 cycles:  637732576 heartbeat IPC: 0.91129 cumulative IPC: 0.64209 (Simulation time: 0 hr 19 min 9 sec) 
Heartbeat CPU  0 instructions:  470000001 cycles:  638791502 heartbeat IPC: 0.94435 cumulative IPC: 0.64265 (Simulation time: 0 hr 19 min 12 sec) 
Heartbeat CPU  0 instructions:  471000003 cycles:  639878181 heartbeat IPC: 0.92024 cumulative IPC: 0.64317 (Simulation time: 0 hr 19 min 14 sec) 
Heartbeat CPU  0 instructions:  472000000 cycles:  641144230 heartbeat IPC: 0.78986 cumulative IPC: 0.64349 (Simulation time: 0 hr 19 min 16 sec) 
Heartbeat CPU  0 instructions:  473000000 cycles:  642447556 heartbeat IPC: 0.76727 cumulative IPC: 0.64377 (Simulation time: 0 hr 19 min 19 sec) 
Heartbeat CPU  0 instructions:  474000001 cycles:  643739495 heartbeat IPC: 0.77403 cumulative IPC: 0.64406 (Simulation time: 0 hr 19 min 21 sec) 
Heartbeat CPU  0 instructions:  475000002 cycles:  645026532 heartbeat IPC: 0.77698 cumulative IPC: 0.64436 (Simulation time: 0 hr 19 min 24 sec) 
Heartbeat CPU  0 instructions:  476000000 cycles:  646353633 heartbeat IPC: 0.75352 cumulative IPC: 0.64460 (Simulation time: 0 hr 19 min 26 sec) 
Heartbeat CPU  0 instructions:  477000000 cycles:  647670667 heartbeat IPC: 0.75928 cumulative IPC: 0.64486 (Simulation time: 0 hr 19 min 29 sec) 
Heartbeat CPU  0 instructions:  478000002 cycles:  648942249 heartbeat IPC: 0.78642 cumulative IPC: 0.64517 (Simulation time: 0 hr 19 min 31 sec) 
Heartbeat CPU  0 instructions:  479000002 cycles:  650231795 heartbeat IPC: 0.77547 cumulative IPC: 0.64546 (Simulation time: 0 hr 19 min 34 sec) 
Heartbeat CPU  0 instructions:  480000000 cycles:  651557590 heartbeat IPC: 0.75426 cumulative IPC: 0.64570 (Simulation time: 0 hr 19 min 36 sec) 
Heartbeat CPU  0 instructions:  481000003 cycles:  652814331 heartbeat IPC: 0.79571 cumulative IPC: 0.64602 (Simulation time: 0 hr 19 min 39 sec) 
Heartbeat CPU  0 instructions:  482000000 cycles:  654091007 heartbeat IPC: 0.78328 cumulative IPC: 0.64632 (Simulation time: 0 hr 19 min 41 sec) 
Heartbeat CPU  0 instructions:  483000001 cycles:  655386506 heartbeat IPC: 0.77190 cumulative IPC: 0.64659 (Simulation time: 0 hr 19 min 43 sec) 
Heartbeat CPU  0 instructions:  484000000 cycles:  656675309 heartbeat IPC: 0.77591 cumulative IPC: 0.64687 (Simulation time: 0 hr 19 min 46 sec) 
Heartbeat CPU  0 instructions:  485000003 cycles:  657949439 heartbeat IPC: 0.78485 cumulative IPC: 0.64717 (Simulation time: 0 hr 19 min 48 sec) 
Heartbeat CPU  0 instructions:  486000000 cycles:  659228133 heartbeat IPC: 0.78205 cumulative IPC: 0.64746 (Simulation time: 0 hr 19 min 51 sec) 
Heartbeat CPU  0 instructions:  487000000 cycles:  660489463 heartbeat IPC: 0.79281 cumulative IPC: 0.64776 (Simulation time: 0 hr 19 min 53 sec) 
Heartbeat CPU  0 instructions:  488000000 cycles:  661772099 heartbeat IPC: 0.77964 cumulative IPC: 0.64805 (Simulation time: 0 hr 19 min 55 sec) 
Heartbeat CPU  0 instructions:  489000003 cycles:  663066237 heartbeat IPC: 0.77272 cumulative IPC: 0.64832 (Simulation time: 0 hr 19 min 58 sec) 
Heartbeat CPU  0 instructions:  490000002 cycles:  664385411 heartbeat IPC: 0.75805 cumulative IPC: 0.64856 (Simulation time: 0 hr 20 min 0 sec) 
Heartbeat CPU  0 instructions:  491000001 cycles:  665696602 heartbeat IPC: 0.76266 cumulative IPC: 0.64880 (Simulation time: 0 hr 20 min 3 sec) 
Heartbeat CPU  0 instructions:  492000000 cycles:  666959457 heartbeat IPC: 0.79186 cumulative IPC: 0.64910 (Simulation time: 0 hr 20 min 5 sec) 
Heartbeat CPU  0 instructions:  493000003 cycles:  668243016 heartbeat IPC: 0.77909 cumulative IPC: 0.64938 (Simulation time: 0 hr 20 min 8 sec) 
Heartbeat CPU  0 instructions:  494000002 cycles:  669548818 heartbeat IPC: 0.76581 cumulative IPC: 0.64963 (Simulation time: 0 hr 20 min 10 sec) 
Heartbeat CPU  0 instructions:  495000002 cycles:  670840905 heartbeat IPC: 0.77394 cumulative IPC: 0.64989 (Simulation time: 0 hr 20 min 13 sec) 
Heartbeat CPU  0 instructions:  496000000 cycles:  672077803 heartbeat IPC: 0.80847 cumulative IPC: 0.65022 (Simulation time: 0 hr 20 min 15 sec) 
Heartbeat CPU  0 instructions:  497000000 cycles:  673342764 heartbeat IPC: 0.79054 cumulative IPC: 0.65051 (Simulation time: 0 hr 20 min 17 sec) 
Heartbeat CPU  0 instructions:  498000002 cycles:  674588228 heartbeat IPC: 0.80292 cumulative IPC: 0.65082 (Simulation time: 0 hr 20 min 20 sec) 
Heartbeat CPU  0 instructions:  499000001 cycles:  675840779 heartbeat IPC: 0.79837 cumulative IPC: 0.65112 (Simulation time: 0 hr 20 min 22 sec) 
Heartbeat CPU  0 instructions:  500000000 cycles:  677112753 heartbeat IPC: 0.78618 cumulative IPC: 0.65140 (Simulation time: 0 hr 20 min 25 sec) 
Heartbeat CPU  0 instructions:  501000003 cycles:  678359465 heartbeat IPC: 0.80211 cumulative IPC: 0.65170 (Simulation time: 0 hr 20 min 27 sec) 
Heartbeat CPU  0 instructions:  502000002 cycles:  679598960 heartbeat IPC: 0.80678 cumulative IPC: 0.65202 (Simulation time: 0 hr 20 min 30 sec) 
Heartbeat CPU  0 instructions:  503000001 cycles:  680864409 heartbeat IPC: 0.79023 cumulative IPC: 0.65230 (Simulation time: 0 hr 20 min 32 sec) 
Heartbeat CPU  0 instructions:  504000000 cycles:  682106915 heartbeat IPC: 0.80482 cumulative IPC: 0.65261 (Simulation time: 0 hr 20 min 34 sec) 
Heartbeat CPU  0 instructions:  505000003 cycles:  683334094 heartbeat IPC: 0.81488 cumulative IPC: 0.65293 (Simulation time: 0 hr 20 min 37 sec) 
Heartbeat CPU  0 instructions:  506000002 cycles:  684559075 heartbeat IPC: 0.81634 cumulative IPC: 0.65325 (Simulation time: 0 hr 20 min 39 sec) 
Heartbeat CPU  0 instructions:  507000001 cycles:  685807694 heartbeat IPC: 0.80088 cumulative IPC: 0.65354 (Simulation time: 0 hr 20 min 42 sec) 
Heartbeat CPU  0 instructions:  508000000 cycles:  687042085 heartbeat IPC: 0.81012 cumulative IPC: 0.65385 (Simulation time: 0 hr 20 min 44 sec) 
Heartbeat CPU  0 instructions:  509000002 cycles:  688245574 heartbeat IPC: 0.83092 cumulative IPC: 0.65419 (Simulation time: 0 hr 20 min 46 sec) 
Heartbeat CPU  0 instructions:  510000001 cycles:  689482165 heartbeat IPC: 0.80867 cumulative IPC: 0.65450 (Simulation time: 0 hr 20 min 49 sec) 
Heartbeat CPU  0 instructions:  511000001 cycles:  690717535 heartbeat IPC: 0.80947 cumulative IPC: 0.65480 (Simulation time: 0 hr 20 min 51 sec) 
Heartbeat CPU  0 instructions:  512000000 cycles:  691936658 heartbeat IPC: 0.82026 cumulative IPC: 0.65513 (Simulation time: 0 hr 20 min 54 sec) 
[...]
scooby_state_401587|13|1 57072,55,59,52,10,19,11,7,8,4,4,9,6,14,14,57344,
scooby_state_401587|46|1 57079,52,67,52,14,14,14,8,2,9,2,9,9,6,7,57344,
scooby_state_401587|19|1 57072,62,59,48,15,14,14,6,1,5,7,12,7,14,8,57344,
scooby_state_401587|5|1 57049,60,75,59,17,17,22,6,7,6,8,5,4,4,5,57344,
scooby_state_401587|16|1 57066,57,63,50,15,12,13,13,3,7,13,6,6,5,15,57344,
scooby_state_401587|44|1 57060,61,66,57,14,11,14,11,7,5,7,9,10,6,6,57344,
scooby_state_401587|30|1 57073,59,68,48,14,13,13,3,7,5,7,8,8,9,9,57344,
scooby_state_401587|15|1 57085,64,59,53,9,14,20,3,3,5,6,7,6,5,5,57344,
scooby_state_401587|10|1 57047,59,68,59,15,12,18,11,4,7,7,7,10,13,7,57344,
scooby_state_401587|27|1 57083,59,61,50,12,11,15,4,9,8,6,5,9,6,6,57344,
scooby_state_401587|56|1 57071,55,74,56,15,13,14,12,6,2,6,3,8,4,5,57344,
scooby_state_401587|49|1 57073,59,68,55,13,12,12,5,6,4,7,4,9,11,6,57344,
scooby_state_401587|38|1 57077,60,62,51,10,11,20,5,8,7,10,7,8,5,3,57344,
scooby_state_401587|29|1 57084,62,58,49,17,10,12,6,5,15,5,7,4,3,7,57344,
scooby_state_401587|18|1 57082,55,60,47,15,13,13,3,11,7,9,9,7,6,7,57344,
scooby_state_401587|35|1 57092,55,62,47,11,13,8,4,7,8,5,5,10,7,10,57344,
scooby_state_401587|52|1 57049,54,79,55,19,13,16,3,8,6,9,5,9,8,11,57344,
scooby_state_401587|33|1 57078,56,60,53,13,10,19,5,6,7,3,8,6,10,10,57344,
scooby_state_401587|58|1 57061,55,68,54,16,15,18,8,7,6,5,8,3,10,10,57344,
scooby_state_401587|36|1 57081,59,62,54,17,13,10,5,8,6,7,4,6,5,7,57344,
scooby_state_401587|32|1 57089,56,62,49,11,12,13,5,4,4,9,3,8,11,8,57344,
scooby_state_401587|20|1 57085,61,64,47,10,9,11,9,5,7,7,4,7,11,7,57344,
scooby_state_401587|60|1 57070,57,72,51,15,18,16,7,6,4,5,8,6,3,6,57344,
scooby_state_401587|48|1 57080,54,71,54,15,7,14,2,6,6,8,5,7,5,10,57344,
scooby_state_401587|6|1 57048,61,75,62,17,19,17,3,6,4,10,3,7,4,8,57344,
scooby_state_401587|51|1 57067,53,75,55,12,8,11,6,4,13,9,8,11,8,4,57344,
scooby_state_401587|53|1 57072,53,74,54,12,10,15,11,8,6,7,4,6,6,6,57344,
scooby_state_401587|23|1 57071,59,62,47,19,18,18,4,3,7,9,7,7,9,4,57344,
scooby_state_401587|57|1 57049,55,77,54,19,15,19,5,6,10,5,6,11,9,4,57344,
scooby_state_401587|62|1 57065,55,73,56,15,17,14,14,2,2,6,2,8,10,5,57344,
scooby_state_401587|43|1 57093,56,61,47,12,13,17,7,2,7,6,4,5,6,8,57344,
scooby_state_401587|63|1 57067,53,78,54,15,11,17,4,9,4,4,6,11,4,7,57344,
scooby_state_401587|22|1 57078,62,60,47,13,16,11,9,5,7,7,6,4,12,7,57344,
scooby_state_401587|31|1 57080,54,66,55,17,12,9,11,11,7,6,3,6,4,3,57344,
scooby_state_401587|24|1 57076,58,66,50,19,12,12,7,6,9,7,3,7,7,5,57344,
scooby_state_401587|28|1 57088,63,58,52,14,11,9,11,7,7,6,1,6,9,2,57344,
scooby_state_401587|59|1 57048,59,72,52,17,18,17,10,8,8,9,4,5,8,9,57344,
scooby_state_401587|37|1 57084,57,60,52,12,10,14,8,5,7,6,8,6,9,6,57344,
scooby_state_401587|17|1 57077,58,60,44,17,13,14,7,7,7,5,8,11,7,9,57344,
scooby_state_401587|47|1 57065,60,67,54,15,12,12,3,11,8,6,10,2,7,12,57344,
scooby_state_401587|50|1 57072,54,72,53,9,15,15,7,11,8,7,5,6,7,3,57344,
scooby_state_401587|1|1 57028,64,86,67,15,22,23,6,5,5,3,8,8,1,3,57344,
scooby_state_401587|4|1 57050,55,76,65,16,17,16,7,6,5,6,6,6,7,6,57344,
scooby_state_401587|42|1 57072,58,67,54,14,9,14,9,3,13,4,7,5,8,7,57344,
scooby_state_401587|25|1 57082,60,62,50,17,7,9,6,7,6,11,7,5,12,3,57344,
scooby_state_401587|12|1 57080,55,63,54,11,13,13,5,8,4,6,7,9,7,9,57344,
scooby_state_401587|2|1 57013,59,81,61,21,20,19,8,7,8,12,8,3,9,15,57344,
scooby_state_401587|14|1 57071,55,58,54,11,15,15,4,15,7,8,12,0,10,9,57344,
scooby_state_401587|41|1 57064,57,69,56,13,9,11,10,5,9,6,8,10,7,10,57344,
scooby_state_401587|61|1 57050,59,76,54,12,10,17,8,6,9,12,12,7,7,5,57344,
scooby_state_401587|26|1 57078,66,61,50,19,9,13,8,6,3,7,8,5,4,7,57344,
scooby_state_401587|21|1 57087,60,59,48,15,9,10,5,5,10,13,3,2,11,7,57344,
scooby_state_401587|45|1 57073,56,73,53,14,12,15,2,10,6,5,7,4,6,8,57344,
scooby_state_401587|9|1 57056,63,65,57,22,16,13,3,7,9,4,7,7,8,7,57344,
scooby_state_401587|8|1 57055,67,76,59,13,13,16,6,1,4,8,6,12,5,3,57344,
scooby_state_401587|39|1 57059,56,68,56,13,13,16,7,12,7,7,11,8,9,2,57344,
scooby_state_4011ae|0|0 49076,6,2,6,10,3,10,5,3,6,6,5,6,9,5,49158,
scooby_state_4011ae|54|1 49076,2,3,1,6,3,4,6,12,5,3,12,2,5,12,49152,
scooby_state_4011ae|45|1 49070,6,8,6,3,5,6,4,6,6,4,7,11,6,4,49152,
scooby_state_4011ae|38|1 49081,5,3,9,7,5,5,7,2,3,6,4,4,6,5,49152,
scooby_state_4011ae|23|1 49069,6,7,9,7,3,6,2,5,9,3,5,6,5,10,49152,
scooby_state_4011ae|27|1 49067,7,3,6,8,10,6,6,7,5,3,6,5,8,5,49152,
scooby_state_4011ae|26|1 49056,4,9,10,5,6,5,10,7,10,8,5,7,8,2,49152,
scooby_state_4011ae|37|1 49073,9,4,3,3,6,5,6,4,7,5,5,9,2,11,49152,
scooby_state_4011ae|32|1 49073,3,8,8,8,7,4,6,3,7,7,6,3,5,4,49152,
scooby_state_4011ae|25|1 49058,11,2,8,9,6,8,11,3,3,9,6,5,10,3,49152,
scooby_state_4011ae|21|1 49062,6,6,4,6,5,14,4,7,10,8,2,8,5,5,49152,
scooby_state_4011ae|20|1 49065,5,5,9,6,2,8,4,4,1,11,10,9,9,4,49152,
scooby_state_4011ae|16|1 49088,2,2,5,7,5,3,5,6,6,2,5,4,6,6,49152,
scooby_state_4011ae|13|1 49078,5,8,5,9,3,5,5,3,6,6,4,6,5,4,49152,
scooby_state_4011ae|12|1 49092,3,6,3,3,10,2,4,4,5,3,5,4,4,4,49152,
scooby_state_4011ae|11|1 49070,5,7,5,10,7,4,4,8,4,7,3,3,9,6,49152,
scooby_state_4011ae|10|1 49055,7,5,8,5,10,3,6,8,8,5,11,7,6,8,49152,
scooby_state_4011ae|8|1 49069,6,8,3,4,8,7,5,7,3,7,4,8,7,6,49152,
scooby_state_4011ae|17|1 49076,7,5,4,4,6,3,2,8,3,6,4,9,7,8,49152,
scooby_state_4011ae|6|1 49051,8,7,8,5,6,9,3,5,10,8,8,6,8,10,49152,
scooby_state_4011ae|3|1 49085,4,3,3,4,5,7,4,5,5,7,7,8,0,5,49152,
scooby_state_4011ae|2|1 49061,10,9,2,6,5,7,12,10,3,10,6,3,2,6,49152,
scooby_state_4011ae|33|1 49069,4,8,9,7,9,6,7,4,5,4,6,4,7,3,49152,
scooby_state_4011ae|50|1 49077,5,3,3,6,9,5,6,3,10,5,6,4,3,7,49152,
scooby_state_4011ae|7|1 49071,8,6,6,3,11,5,7,4,5,7,4,7,1,7,49152,
scooby_state_4011ae|15|1 49052,8,9,4,5,8,5,11,5,2,8,9,11,9,6,49152,
scooby_state_4011ae|35|1 49075,4,6,3,4,4,5,4,6,4,2,7,7,10,11,49152,
scooby_state_4011ae|46|1 49062,5,4,7,10,2,6,8,7,5,3,7,14,2,10,49152,
scooby_state_4011ae|24|1 49073,5,7,5,8,8,4,0,1,5,6,7,8,8,7,49152,
scooby_state_4011ae|4|1 49088,1,6,4,5,4,2,5,7,4,5,5,6,5,5,49152,
scooby_state_4011ae|39|1 49059,7,4,9,2,5,11,9,4,5,8,9,8,6,6,49152,
scooby_state_4011ae|36|1 49075,6,9,4,6,3,7,7,7,7,5,4,5,4,3,49152,
scooby_state_4011ae|1|1 49063,8,6,5,5,9,6,9,6,3,6,10,9,3,4,49152,
scooby_state_4011ae|56|1 49060,6,11,10,5,2,8,5,5,4,8,4,9,6,9,49152,
scooby_state_4011ae|61|1 49077,7,4,9,6,3,5,6,1,6,6,5,4,8,5,49152,
scooby_state_4011ae|53|1 49083,2,2,3,6,3,8,8,8,4,3,5,4,6,7,49152,
scooby_state_4011ae|57|1 49062,6,13,7,12,9,5,3,8,3,4,6,5,6,3,49152,
scooby_state_4011ae|58|1 49095,1,8,4,2,1,1,9,1,6,6,3,4,6,5,49152,
scooby_state_4011ae|62|1 49068,6,4,7,5,9,7,3,9,6,6,8,5,5,4,49152,
scooby_state_4011ae|49|1 49065,9,8,7,4,7,5,4,8,10,4,7,3,9,2,49152,
scooby_state_4011ae|63|1 49085,6,6,6,4,6,3,7,3,5,4,3,4,3,7,49152,
scooby_state_4011ae|18|1 49079,9,6,7,4,4,9,3,5,0,7,10,4,3,2,49152,
scooby_state_4011ae|40|1 49073,4,2,2,8,3,13,6,6,4,8,6,11,5,1,49152,
scooby_state_4011ae|42|1 49055,3,10,6,11,5,6,7,5,8,8,4,7,7,10,49152,
scooby_state_4011ae|44|1 49080,4,1,8,5,4,8,3,4,7,5,5,7,7,4,49152,
scooby_state_4011ae|51|1 49069,8,3,4,6,7,5,10,4,5,7,4,8,3,9,49152,
scooby_state_4011ae|59|1 49067,3,15,3,6,7,6,8,2,9,3,3,6,9,5,49152,
scooby_state_4011ae|19|1 49059,9,8,3,8,8,7,9,10,5,3,2,8,8,5,49152,
scooby_state_4011ae|34|1 49070,10,8,4,3,4,8,9,7,5,3,9,2,5,5,49152,
scooby_state_4011ae|29|1 49064,10,5,8,4,4,7,5,10,4,4,6,6,7,8,49152,
scooby_state_4011ae|22|1 49068,5,7,4,11,6,6,7,3,1,5,7,7,9,6,49152,
scooby_state_4011ae|28|1 49064,6,5,5,4,11,7,6,10,5,6,6,10,3,4,49152,
scooby_state_4011ae|43|1 49079,8,3,5,4,7,5,7,3,8,6,3,6,3,5,49152,
scooby_state_4011ae|9|1 49064,7,9,6,6,4,6,6,7,7,3,9,8,4,6,49152,
scooby_state_4011ae|47|1 49073,11,5,4,6,5,6,5,5,7,3,5,9,2,6,49152,
scooby_state_4011ae|31|1 49074,7,1,6,5,8,4,5,7,8,5,3,6,5,8,49152,
scooby_state_4011ae|55|1 49056,7,7,5,5,3,12,10,9,5,2,14,8,6,3,49152,
scooby_state_4011ae|14|1 49069,6,4,11,6,4,4,7,8,4,7,4,9,4,5,49152,
scooby_state_4011ae|41|1 49073,5,4,4,9,5,2,4,6,6,8,10,5,5,6,49152,
scooby_state_4011ae|5|1 49069,6,4,4,12,5,12,3,5,5,2,8,6,6,5,49152,
scooby_state_4011ae|48|1 49068,5,6,6,5,6,7,12,5,6,3,5,5,6,7,49152,
scooby_state_4011ae|30|1 49065,4,4,8,6,7,7,9,5,6,8,2,8,5,8,49152,
scooby_state_4011ae|60|1 49072,6,5,5,10,4,3,5,7,4,6,4,10,5,6,49152,
scooby_state_4011ae|52|1 49071,4,6,7,4,6,6,5,9,6,10,5,4,4,5,49152,
scooby_state_405435|55|1 1,1,1,27,0,0,0,0,0,0,0,0,0,0,0,30,
scooby_state_4008d5|54|0 19,0,0,0,0,0,0,0,0,0,0,0,0,0,0,19,
scooby_state_40147a|32|0 8,0,0,0,0,0,0,0,0,0,0,0,0,0,0,8,
scooby_state_404b6b|54|0 7,0,0,0,0,0,0,0,0,0,0,0,0,0,0,7,
scooby_state_401470|32|0 1,1,1,1,1,1,0,1,0,0,0,0,0,0,0,7,
scooby_state_400599|54|0 4,0,0,0,0,0,0,0,0,0,0,0,0,0,0,4,
scooby_state_4015b1|32|0 3,1,0,0,0,0,0,0,0,0,0,0,0,0,0,4,
scooby_state_4011c3|32|0 1,0,1,0,1,0,0,0,0,0,0,0,0,0,0,3,
scooby_state_4011c4|33|0 1,1,0,0,0,0,0,0,0,0,0,0,0,0,0,2,
scooby_state_403730|28|-20 1,0,0,0,0,0,0,0,0,0,0,0,0,0,0,1,
scooby_state_403781|30|1 1,0,0,0,0,0,0,0,0,0,0,0,0,0,0,1,
scooby_state_403bc3|47|1 1,0,0,0,0,0,0,0,0,0,0,0,0,0,0,1,
scooby_state_4015b3|33|0 1,0,0,0,0,0,0,0,0,0,0,0,0,0,0,1,
scooby_state_403741|29|1 1,0,0,0,0,0,0,0,0,0,0,0,0,0,0,1,
scooby_state_4042f9|11|0 1,0,0,0,0,0,0,0,0,0,0,0,0,0,0,1,
scooby_state_4037b2|33|1 1,0,0,0,0,0,0,0,0,0,0,0,0,0,0,1,
scooby_state_403f3f|34|1 1,0,0,0,0,0,0,0,0,0,0,0,0,0,0,1,
scooby_state_403a00|40|0 0,0,0,1,0,0,0,0,0,0,0,0,0,0,0,1,
scooby_state_403880|34|-26 0,1,0,0,0,0,0,0,0,0,0,0,0,0,0,1,
scooby_state_403f02|60|0 1,0,0,0,0,0,0,0,0,0,0,0,0,0,0,1,
scooby_state_403e00|56|0 1,0,0,0,0,0,0,0,0,0,0,0,0,0,0,1,
scooby_state_4013b0|14|-4 1,0,0,0,0,0,0,0,0,0,0,0,0,0,0,1,
scooby_state_403de0|55|4 1,0,0,0,0,0,0,0,0,0,0,0,0,0,0,1,
scooby_state_4038c2|35|1 1,0,0,0,0,0,0,0,0,0,0,0,0,0,0,1,
scooby_state_401520|20|0 1,0,0,0,0,0,0,0,0,0,0,0,0,0,0,1,
scooby_state_403c80|50|-8 1,0,0,0,0,0,0,0,0,0,0,0,0,0,0,1,
scooby_state_403eb0|58|-1 1,0,0,0,0,0,0,0,0,0,0,0,0,0,0,1,
scooby_state_403ef6|59|0 1,0,0,0,0,0,0,0,0,0,0,0,0,0,0,1,
scooby_state_4011c3|7|0 0,1,0,0,0,0,0,0,0,0,0,0,0,0,0,1,
scooby_state_4011c3|33|0 0,0,0,1,0,0,0,0,0,0,0,0,0,0,0,1,
scooby_state_404b80|46|1 1,0,0,0,0,0,0,0,0,0,0,0,0,0,0,1,
scooby_state_403d35|52|0 1,0,0,0,0,0,0,0,0,0,0,0,0,0,0,1,
scooby_state_403b00|44|0 1,0,0,0,0,0,0,0,0,0,0,0,0,0,0,1,
scooby_state_400580|22|0 1,0,0,0,0,0,0,0,0,0,0,0,0,0,0,1,
scooby_state_4008d0|35|13 1,0,0,0,0,0,0,0,0,0,0,0,0,0,0,1,
scooby_state_403d40|53|1 1,0,0,0,0,0,0,0,0,0,0,0,0,0,0,1,
scooby_state_403c41|49|0 1,0,0,0,0,0,0,0,0,0,0,0,0,0,0,1,
scooby_state_4013c1|15|1 1,0,0,0,0,0,0,0,0,0,0,0,0,0,0,1,
scooby_state_405430|16|0 1,0,0,0,0,0,0,0,0,0,0,0,0,0,0,1,
scooby_state_405440|17|1 1,0,0,0,0,0,0,0,0,0,0,0,0,0,0,1,
scooby_state_404b41|45|1 1,0,0,0,0,0,0,0,0,0,0,0,0,0,0,1,
scooby_state_401181|6|1 1,0,0,0,0,0,0,0,0,0,0,0,0,0,0,1,
scooby_state_401540|21|1 1,0,0,0,0,0,0,0,0,0,0,0,0,0,0,1,
scooby_state_401580|22|1 1,0,0,0,0,0,0,0,0,0,0,0,0,0,0,1,
scooby_state_4037c1|31|0 1,0,0,0,0,0,0,0,0,0,0,0,0,0,0,1,
scooby_state_403d71|33|1 1,0,0,0,0,0,0,0,0,0,0,0,0,0,0,1,
scooby_state_4015b3|32|0 1,0,0,0,0,0,0,0,0,0,0,0,0,0,0,1,
scooby_state_403f40|61|0 1,0,0,0,0,0,0,0,0,0,0,0,0,0,0,1,
scooby_state_4039c2|39|1 1,0,0,0,0,0,0,0,0,0,0,0,0,0,0,1,
scooby_state_403aa8|42|0 1,0,0,0,0,0,0,0,0,0,0,0,0,0,0,1,
scooby_state_403ab7|33|1 1,0,0,0,0,0,0,0,0,0,0,0,0,0,0,1,
scooby_state_401470|33|0 0,0,0,0,0,0,1,0,0,0,0,0,0,0,0,1,
scooby_state_403d9d|54|0 1,0,0,0,0,0,0,0,0,0,0,0,0,0,0,1,
scooby_state_401150|5|0 0,1,0,0,0,0,0,0,0,0,0,0,0,0,0,1,
scooby_state_403908|33|1 1,0,0,0,0,0,0,0,0,0,0,0,0,0,0,1,
scooby_state_404202|8|1 1,0,0,0,0,0,0,0,0,0,0,0,0,0,0,1,
scooby_state_404302|12|1 1,0,0,0,0,0,0,0,0,0,0,0,0,0,0,1,
scooby_state_4015b1|34|0 1,0,0,0,0,0,0,0,0,0,0,0,0,0,0,1,
scooby_state_4041e0|7|-5 0,0,0,0,0,0,0,0,1,0,0,0,0,0,0,1,
scooby_state_403ad0|43|4 0,1,0,0,0,0,0,0,0,0,0,0,0,0,0,1,
scooby_state_40146b|32|0 1,0,0,0,0,0,0,0,0,0,0,0,0,0,0,1,
scooby_state_403bb0|46|0 1,0,0,0,0,0,0,0,0,0,0,0,0,0,0,1,
scooby_state_403903|36|0 1,0,0,0,0,0,0,0,0,0,0,0,0,0,0,1,
scooby_state_403cc0|51|1 1,0,0,0,0,0,0,0,0,0,0,0,0,0,0,1,
scooby_state_403c00|48|1 1,0,0,0,0,0,0,0,0,0,0,0,0,0,0,1,
scooby_state_40145d|39|0 1,0,0,0,0,0,0,0,0,0,0,0,0,0,0,1,
scooby_state_403990|38|-11 1,0,0,0,0,0,0,0,0,0,0,0,0,0,0,1,
scooby_state_401442|17|0 1,0,0,0,0,0,0,0,0,0,0,0,0,0,0,1,
scooby_state_401438|16|-1 1,0,0,0,0,0,0,0,0,0,0,0,0,0,0,1,
scooby_state_403dce|33|1 1,0,0,0,0,0,0,0,0,0,0,0,0,0,0,1,
scooby_state_404b00|44|0 1,0,0,0,0,0,0,0,0,0,0,0,0,0,0,1,
scooby_state_40430a|35|1 1,0,0,0,0,0,0,0,0,0,0,0,0,0,0,1,
scooby_state_401442|23|0 1,0,0,0,0,0,0,0,0,0,0,0,0,0,0,1,
scooby_state_401483|18|0 1,0,0,0,0,0,0,0,0,0,0,0,0,0,0,1,

scooby_action_0_deg_dist 0,1843,0,0,0,0,0,0,0,0,0,0,0,0,0,0,
scooby_action_4_deg_dist 0,3271,795,0,1793,0,13375,0,0,0,0,0,0,0,0,0,
scooby_action_32_deg_dist 0,1770,0,0,0,0,0,0,0,0,0,0,0,0,0,0,
scooby_action_3_deg_dist 0,3413,912,0,2081,0,16284,0,0,0,0,0,0,0,0,0,
scooby_action_5_deg_dist 0,2790,568,0,1268,0,9016,0,0,0,0,0,0,0,0,0,
scooby_action_1_deg_dist 0,716178,476516,0,1190468,0,12796806,0,0,0,0,0,0,0,0,0,
scooby_action_30_deg_dist 0,1833,0,0,0,0,0,0,0,0,0,0,0,0,0,0,
scooby_action_-3_deg_dist 0,1829,0,0,0,0,0,0,0,0,0,0,0,0,0,0,
scooby_action_10_deg_dist 0,2144,158,0,338,0,2499,0,0,0,0,0,0,0,0,0,
scooby_action_-1_deg_dist 0,1879,0,0,0,0,0,0,0,0,0,0,0,0,0,0,
scooby_action_23_deg_dist 0,1879,15,0,35,0,145,0,0,0,0,0,0,0,0,0,
scooby_action_-6_deg_dist 0,1791,0,0,0,0,0,0,0,0,0,0,0,0,0,0,
scooby_action_11_deg_dist 0,2131,169,0,347,0,2463,0,0,0,0,0,0,0,0,0,
scooby_action_22_deg_dist 0,1900,0,0,0,0,0,0,0,0,0,0,0,0,0,0,
scooby_action_12_deg_dist 0,2229,149,0,322,0,2169,0,0,0,0,0,0,0,0,0,

scooby_track_called 15265571
scooby_track_same_address 22585
scooby_track_evict 15242730

scooby_reward_demand_called 15265571
scooby_reward_demand_pt_not_found 271218
scooby_reward_demand_pt_found 14994353
scooby_reward_demand_pt_found_total 14994353
scooby_reward_demand_has_reward 0
scooby_reward_train_called 2058
scooby_reward_assign_reward_called 15242985
scooby_reward_no_pref 1843
scooby_reward_incorrect 215
scooby_reward_correct_untimely 12992445
scooby_reward_correct_timely 2001908
scooby_reward_out_of_bounds 246574
scooby_reward_tracker_hit 0

scooby_reward_none_low_bw 1843
scooby_reward_none_high_bw 0
scooby_reward_incorrect_low_bw 215
scooby_reward_incorrect_high_bw 0
scooby_reward_correct_untimely_low_bw 12992445
scooby_reward_correct_untimely_high_bw 0
scooby_reward_correct_timely_low_bw 2001908
scooby_reward_correct_timely_high_bw 0
scooby_reward_out_of_bounds_low_bw 246574
scooby_reward_out_of_bounds_high_bw 0
scooby_reward_tracker_hit_low_bw 0
scooby_reward_tracker_hit_high_bw 0

scooby_reward_1 0,81,12947442,1977855,237220,0,
scooby_reward_3 0,8,17429,4139,1076,0,
scooby_reward_4 0,3,13654,4335,1231,0,
scooby_reward_5 0,30,8752,3761,1091,0,
scooby_reward_10 0,2,1875,2457,799,0,
scooby_reward_11 0,1,1774,2492,840,0,
scooby_reward_12 0,1,1471,2503,894,0,
scooby_reward_22 0,1,4,1215,679,0,
scooby_reward_23 0,1,43,1311,719,0,
scooby_reward_30 0,0,1,943,888,0,
scooby_reward_32 0,0,0,897,873,0,
scooby_reward_-1 0,33,0,0,36,0,
scooby_reward_-3 0,33,0,0,77,0,
scooby_reward_-6 0,21,0,0,151,0,
scooby_reward_0 1843,0,0,0,0,0,

scooby_train_called 15242729
scooby_train_compute_reward 2058

scooby_register_fill_called 11458203
scooby_register_fill_set 2002033
scooby_register_fill_set_total 2002033

scooby_register_prefetch_hit_called 24529870
scooby_register_prefetch_hit_set 9687128
scooby_register_prefetch_hit_set_total 9687128

scooby_pref_issue_scooby 78375557

learning_engine_featurewise.action.called 15265571
learning_engine_featurewise.action.explore 27704
learning_engine_featurewise.action.exploit 15237867
learning_engine_featurewise.action.fallback 0
learning_engine_featurewise.action.dyn_fallback_saved_bw 0
learning_engine_featurewise.action.dyn_fallback_saved_bw_acc 3473
learning_engine_featurewise.action.index_1_explored 1890
learning_engine_featurewise.action.index_1_exploited 15178078
learning_engine_featurewise.action.index_3_explored 1857
learning_engine_featurewise.action.index_3_exploited 20833
learning_engine_featurewise.action.index_4_explored 1869
learning_engine_featurewise.action.index_4_exploited 17365
learning_engine_featurewise.action.index_5_explored 1801
learning_engine_featurewise.action.index_5_exploited 11841
learning_engine_featurewise.action.index_10_explored 1853
learning_engine_featurewise.action.index_10_exploited 3286
learning_engine_featurewise.action.index_11_explored 1853
learning_engine_featurewise.action.index_11_exploited 3257
learning_engine_featurewise.action.index_12_explored 1927
learning_engine_featurewise.action.index_12_exploited 2942
learning_engine_featurewise.action.index_22_explored 1899
learning_engine_featurewise.action.index_22_exploited 1
learning_engine_featurewise.action.index_23_explored 1810
learning_engine_featurewise.action.index_23_exploited 264
learning_engine_featurewise.action.index_30_explored 1833
learning_engine_featurewise.action.index_30_exploited 0
learning_engine_featurewise.action.index_32_explored 1770
learning_engine_featurewise.action.index_32_exploited 0
learning_engine_featurewise.action.index_-1_explored 1879
learning_engine_featurewise.action.index_-1_exploited 0
learning_engine_featurewise.action.index_-3_explored 1829
learning_engine_featurewise.action.index_-3_exploited 0
learning_engine_featurewise.action.index_-6_explored 1791
learning_engine_featurewise.action.index_-6_exploited 0
learning_engine_featurewise.action.index_0_explored 1843
learning_engine_featurewise.action.index_0_exploited 0
learning_engine_featurewise.learn.called 15242729
learning_engine_featurewise.learn.su_skip_PC 0
learning_engine_featurewise.learn.su_skip_PC_Delta 0

learning_engine_featurewise.q_value_histogram.bucket_0 0
learning_engine_featurewise.q_value_histogram.bucket_1 0
learning_engine_featurewise.q_value_histogram.bucket_2 0
learning_engine_featurewise.q_value_histogram.bucket_3 0
learning_engine_featurewise.q_value_histogram.bucket_4 988
learning_engine_featurewise.q_value_histogram.bucket_5 228
learning_engine_featurewise.q_value_histogram.bucket_6 15236651
learning_engine_featurewise.q_value_histogram.bucket_7 0

learning_engine_featurewise.consensus.total 15237867
learning_engine_featurewise.consensus.feature_align_PC 15231772
learning_engine_featurewise.consensus.feature_align_PC_ratio 1.00
learning_engine_featurewise.consensus.feature_align_PC_Delta 15215346
learning_engine_featurewise.consensus.feature_align_PC_Delta_ratio 1.00
learning_engine_featurewise.consensus.feature_align_all 15209251
learning_engine_featurewise.consensus.feature_align_all_ratio 1.00

learning_engine_featurewise.feature_PC_min_weight 1000000.00000000
learning_engine_featurewise.feature_PC_max_weight 0.00000000
learning_engine_featurewise.feature_PC_Delta_min_weight 1000000.00000000
learning_engine_featurewise.feature_PC_Delta_max_weight 0.00000000
unique_pcs 70
unique_pages 8200
unique_trigger_pcs 34
total_bitmaps_seen 0
unique_bitmaps_seen 0

scooby_bw_epochs 3262876
scooby_bw_level_0 927834
scooby_bw_level_1 1391833
scooby_bw_level_2 669858
scooby_bw_level_3 273351

scooby_ipc_epochs 0
scooby_ipc_level_0 0
scooby_ipc_level_1 0
scooby_ipc_level_2 0
scooby_ipc_level_3 0

scooby_cache_acc_epochs 796475
scooby_cache_acc_level_0 14
scooby_cache_acc_level_1 217
scooby_cache_acc_level_2 282
scooby_cache_acc_level_3 391
scooby_cache_acc_level_4 1562
scooby_cache_acc_level_5 1393
scooby_cache_acc_level_6 1269
scooby_cache_acc_level_7 7160
scooby_cache_acc_level_8 40100
scooby_cache_acc_level_9 744087

Channel_0_RQ_row_buffer_hit 5241593
Channel_0_RQ_row_buffer_miss 7440860
Channel_0_WQ_row_buffer_hit 1694771
Channel_0_WQ_row_buffer_miss 3319442
Channel_0_WQ_full 0
Channel_0_dbus_congested 11207870

avg_congested_cycle 10

DRAM_bw_pochs 3262876
DRAM_bw_level_0 927834
DRAM_bw_level_1 1391833
DRAM_bw_level_2 669858
DRAM_bw_level_3 273351
