*************************************************
   ChampSim Multicore Out-of-Order Simulator
   Last compiled: Nov 21 2024 21:50:18
*************************************************
parsing config file: /home/shichen/os/compile-time-prefetcher-classification/ChampSim/config/mlop.ini

trace_0 /home/shichen/os/compile-time-prefetcher-classification/ChampSim/traces/462.libquantum-1343B.champsimtrace.xz
adding L2C_PREFETCHER: MLOP
Initialize SHIP state
warmup_instructions 100000000
simulation_instructions 500000000
champsim_seed 269
measure_ipc 0
measure_ipc_epoch 1000
measure_dram_bw 1
measure_dram_bw_epoch 256
measure_cache_acc 1
measure_cache_acc_epoch 1024
l1d_perfect 0
l2c_perfect 0
llc_perfect 0
l1d_semi_perfect 0
l2c_semi_perfect 0
llc_semi_perfect 0
semi_perfect_cache_page_buffer_size 64

num_cpus 1
cpu_freq 4000
dram_io_freq 2400
page_size 4096
block_size 64
max_read_per_cycle 8
max_fill_per_cycle 1
dram_channels 1
log2_dram_channels 0
dram_ranks 1
dram_banks 8
dram_rows 65536
dram_columns 128
dram_row_size 8
dram_size 4096
dram_pages 1048576

fetch_width 6
decode_width 6
exec_width 4
lq_width 2
sq_width 2
retire_width 4
scheduler_size 128
branch_mispredict_penalty 20
rob_size 256
lq_size 72
sq_size 56
num_instr_destinations_sparc 4
num_instr_destinations 2
num_instr_sources 4

itlb_set 16
itlb_way 8
itlb_rq_size 16
itlb_wq_size 16
itlb_pq_size 0
itlb_mshr_size 8
itlb_latency 1

dtlb_set 16
dtlb_way 4
dtlb_rq_size 16
dtlb_wq_size 16
dtlb_pq_size 0
dtlb_mshr_size 8
dtlb_latency 1

stlb_set 128
stlb_way 12
stlb_rq_size 32
stlb_wq_size 32
stlb_pq_size 0
stlb_mshr_size 16
stlb_latency 8

l1i_size 32
l1i_set 64
l1i_way 8
l1i_rq_size 64
l1i_wq_size 64
l1i_pq_size 8
l1i_mshr_size 8
l1i_latency 1

l1d_size 32
l1d_set 64
l1d_way 8
l1d_rq_size 64
l1d_wq_size 64
l1d_pq_size 8
l1d_mshr_size 16
l1d_latency 4

l2c_size 256
l2c_set 512
l2c_way 8
l2c_rq_size 32
l2c_wq_size 32
l2c_pq_size 32
l2c_mshr_size 32
l2c_latency 10

llc_size 2048
llc_set 2048
llc_way 16
llc_rq_size 32
llc_wq_size 32
llc_pq_size 32
llc_mshr_size 64
llc_latency 20

dram_channel_width 8
dram_wq_size 64
dram_rq_size 64
tRP 15
tRCD 15
tCAS 12.5
dram_dbus_turn_around_time 30
dram_write_high_wm 56
dram_write_low_wm 48
min_dram_writes_per_switch 16
dram_mtps 2400
dram_dbus_return_time 13

mlop_pref_degree 16
mlop_num_updates 500
mlop_l1d_thresh 2
mlop_l2c_thresh 0.75
mlop_llc_thresh 0.3
mlop_debug_level 0
mlop_blocks_in_cache 4096
mlop_blocks_in_zone 64
mlop_amt_size 2048
mlop_PF_DEGREE 16
mlop_NUM_UPDATES 500
mlop_L1D_THRESH 1000
mlop_L2C_THRESH 375
mlop_LLC_THRESH 150
mlop_ORIGIN 63
mlop_MAX_OFFSET 63
mlop_MIN_OFFSET -63
mlop_ORIGIN 63
mlop_NUM_OFFSETS 127


Heartbeat CPU  0 instructions:    1000000 cycles:     614558 heartbeat IPC: 1.62719 cumulative IPC: 1.62719 (Simulation time: 0 hr 0 min 1 sec) 
Heartbeat CPU  0 instructions:    2000001 cycles:    1194869 heartbeat IPC: 1.72322 cumulative IPC: 1.67382 (Simulation time: 0 hr 0 min 2 sec) 
Heartbeat CPU  0 instructions:    3000000 cycles:    1724061 heartbeat IPC: 1.88967 cumulative IPC: 1.74008 (Simulation time: 0 hr 0 min 3 sec) 
Heartbeat CPU  0 instructions:    4000000 cycles:    2252354 heartbeat IPC: 1.89289 cumulative IPC: 1.77592 (Simulation time: 0 hr 0 min 4 sec) 
Heartbeat CPU  0 instructions:    5000000 cycles:    2780919 heartbeat IPC: 1.89191 cumulative IPC: 1.79797 (Simulation time: 0 hr 0 min 6 sec) 
Heartbeat CPU  0 instructions:    6000000 cycles:    3309869 heartbeat IPC: 1.89054 cumulative IPC: 1.81276 (Simulation time: 0 hr 0 min 7 sec) 
Heartbeat CPU  0 instructions:    7000003 cycles:    3838706 heartbeat IPC: 1.89095 cumulative IPC: 1.82353 (Simulation time: 0 hr 0 min 8 sec) 
Heartbeat CPU  0 instructions:    8000000 cycles:    4367651 heartbeat IPC: 1.89055 cumulative IPC: 1.83165 (Simulation time: 0 hr 0 min 9 sec) 
Heartbeat CPU  0 instructions:    9000002 cycles:    4895759 heartbeat IPC: 1.89356 cumulative IPC: 1.83833 (Simulation time: 0 hr 0 min 10 sec) 
Heartbeat CPU  0 instructions:   10000002 cycles:    5424345 heartbeat IPC: 1.89184 cumulative IPC: 1.84354 (Simulation time: 0 hr 0 min 11 sec) 
Heartbeat CPU  0 instructions:   11000001 cycles:    5952871 heartbeat IPC: 1.89205 cumulative IPC: 1.84785 (Simulation time: 0 hr 0 min 12 sec) 
Heartbeat CPU  0 instructions:   12000000 cycles:    6481461 heartbeat IPC: 1.89182 cumulative IPC: 1.85143 (Simulation time: 0 hr 0 min 13 sec) 
Heartbeat CPU  0 instructions:   13000002 cycles:    7009312 heartbeat IPC: 1.89448 cumulative IPC: 1.85468 (Simulation time: 0 hr 0 min 14 sec) 
Heartbeat CPU  0 instructions:   14000003 cycles:    7538072 heartbeat IPC: 1.89122 cumulative IPC: 1.85724 (Simulation time: 0 hr 0 min 15 sec) 
Heartbeat CPU  0 instructions:   15000000 cycles:    8067099 heartbeat IPC: 1.89026 cumulative IPC: 1.85940 (Simulation time: 0 hr 0 min 16 sec) 
Heartbeat CPU  0 instructions:   16000000 cycles:    8596088 heartbeat IPC: 1.89040 cumulative IPC: 1.86131 (Simulation time: 0 hr 0 min 17 sec) 
Heartbeat CPU  0 instructions:   17000000 cycles:    9123943 heartbeat IPC: 1.89446 cumulative IPC: 1.86323 (Simulation time: 0 hr 0 min 18 sec) 
Heartbeat CPU  0 instructions:   18000000 cycles:    9652614 heartbeat IPC: 1.89154 cumulative IPC: 1.86478 (Simulation time: 0 hr 0 min 19 sec) 
Heartbeat CPU  0 instructions:   19000001 cycles:   10181299 heartbeat IPC: 1.89149 cumulative IPC: 1.86617 (Simulation time: 0 hr 0 min 20 sec) 
Heartbeat CPU  0 instructions:   20000000 cycles:   10710190 heartbeat IPC: 1.89075 cumulative IPC: 1.86738 (Simulation time: 0 hr 0 min 21 sec) 
Heartbeat CPU  0 instructions:   21000000 cycles:   11238127 heartbeat IPC: 1.89417 cumulative IPC: 1.86864 (Simulation time: 0 hr 0 min 22 sec) 
Heartbeat CPU  0 instructions:   22000000 cycles:   11766482 heartbeat IPC: 1.89267 cumulative IPC: 1.86972 (Simulation time: 0 hr 0 min 23 sec) 
Heartbeat CPU  0 instructions:   23000000 cycles:   12294948 heartbeat IPC: 1.89227 cumulative IPC: 1.87069 (Simulation time: 0 hr 0 min 24 sec) 
Heartbeat CPU  0 instructions:   24000000 cycles:   12823585 heartbeat IPC: 1.89166 cumulative IPC: 1.87155 (Simulation time: 0 hr 0 min 25 sec) 
Heartbeat CPU  0 instructions:   25000000 cycles:   13457269 heartbeat IPC: 1.57807 cumulative IPC: 1.85773 (Simulation time: 0 hr 0 min 26 sec) 
Heartbeat CPU  0 instructions:   26000000 cycles:   14396735 heartbeat IPC: 1.06443 cumulative IPC: 1.80597 (Simulation time: 0 hr 0 min 28 sec) 
Heartbeat CPU  0 instructions:   27000000 cycles:   15332872 heartbeat IPC: 1.06822 cumulative IPC: 1.76092 (Simulation time: 0 hr 0 min 29 sec) 
Heartbeat CPU  0 instructions:   28000000 cycles:   16271968 heartbeat IPC: 1.06485 cumulative IPC: 1.72075 (Simulation time: 0 hr 0 min 31 sec) 
Heartbeat CPU  0 instructions:   29000002 cycles:   17208050 heartbeat IPC: 1.06828 cumulative IPC: 1.68526 (Simulation time: 0 hr 0 min 32 sec) 
Heartbeat CPU  0 instructions:   30000000 cycles:   18146190 heartbeat IPC: 1.06594 cumulative IPC: 1.65324 (Simulation time: 0 hr 0 min 33 sec) 
Heartbeat CPU  0 instructions:   31000001 cycles:   19083385 heartbeat IPC: 1.06701 cumulative IPC: 1.62445 (Simulation time: 0 hr 0 min 35 sec) 
Heartbeat CPU  0 instructions:   32000000 cycles:   20020596 heartbeat IPC: 1.06699 cumulative IPC: 1.59835 (Simulation time: 0 hr 0 min 36 sec) 
Heartbeat CPU  0 instructions:   33000002 cycles:   20959563 heartbeat IPC: 1.06500 cumulative IPC: 1.57446 (Simulation time: 0 hr 0 min 38 sec) 
Heartbeat CPU  0 instructions:   34000003 cycles:   21895757 heartbeat IPC: 1.06816 cumulative IPC: 1.55281 (Simulation time: 0 hr 0 min 39 sec) 
Heartbeat CPU  0 instructions:   35000002 cycles:   22833619 heartbeat IPC: 1.06625 cumulative IPC: 1.53283 (Simulation time: 0 hr 0 min 41 sec) 
Heartbeat CPU  0 instructions:   36000000 cycles:   23770839 heartbeat IPC: 1.06698 cumulative IPC: 1.51446 (Simulation time: 0 hr 0 min 42 sec) 
Heartbeat CPU  0 instructions:   37000002 cycles:   24708122 heartbeat IPC: 1.06692 cumulative IPC: 1.49748 (Simulation time: 0 hr 0 min 44 sec) 
Heartbeat CPU  0 instructions:   38000002 cycles:   25646750 heartbeat IPC: 1.06538 cumulative IPC: 1.48167 (Simulation time: 0 hr 0 min 45 sec) 
Heartbeat CPU  0 instructions:   39000002 cycles:   26582845 heartbeat IPC: 1.06827 cumulative IPC: 1.46711 (Simulation time: 0 hr 0 min 46 sec) 
Heartbeat CPU  0 instructions:   40000000 cycles:   27522120 heartbeat IPC: 1.06465 cumulative IPC: 1.45338 (Simulation time: 0 hr 0 min 48 sec) 
Heartbeat CPU  0 instructions:   41000000 cycles:   28460254 heartbeat IPC: 1.06595 cumulative IPC: 1.44061 (Simulation time: 0 hr 0 min 49 sec) 
Heartbeat CPU  0 instructions:   42000001 cycles:   29398134 heartbeat IPC: 1.06624 cumulative IPC: 1.42866 (Simulation time: 0 hr 0 min 51 sec) 
Heartbeat CPU  0 instructions:   43000003 cycles:   30338224 heartbeat IPC: 1.06373 cumulative IPC: 1.41735 (Simulation time: 0 hr 0 min 52 sec) 
Heartbeat CPU  0 instructions:   44000000 cycles:   31275202 heartbeat IPC: 1.06726 cumulative IPC: 1.40687 (Simulation time: 0 hr 0 min 54 sec) 
Heartbeat CPU  0 instructions:   45000000 cycles:   31994270 heartbeat IPC: 1.39069 cumulative IPC: 1.40650 (Simulation time: 0 hr 0 min 56 sec) 
Heartbeat CPU  0 instructions:   46000000 cycles:   32516574 heartbeat IPC: 1.91459 cumulative IPC: 1.41466 (Simulation time: 0 hr 0 min 58 sec) 
Heartbeat CPU  0 instructions:   47000003 cycles:   33038901 heartbeat IPC: 1.91452 cumulative IPC: 1.42257 (Simulation time: 0 hr 1 min 0 sec) 
Heartbeat CPU  0 instructions:   48000000 cycles:   33561205 heartbeat IPC: 1.91459 cumulative IPC: 1.43022 (Simulation time: 0 hr 1 min 2 sec) 
Heartbeat CPU  0 instructions:   49000003 cycles:   34083556 heartbeat IPC: 1.91443 cumulative IPC: 1.43764 (Simulation time: 0 hr 1 min 4 sec) 
Heartbeat CPU  0 instructions:   50000003 cycles:   34605860 heartbeat IPC: 1.91459 cumulative IPC: 1.44484 (Simulation time: 0 hr 1 min 6 sec) 
Heartbeat CPU  0 instructions:   51000002 cycles:   35128186 heartbeat IPC: 1.91451 cumulative IPC: 1.45183 (Simulation time: 0 hr 1 min 8 sec) 
Heartbeat CPU  0 instructions:   52000000 cycles:   35650490 heartbeat IPC: 1.91459 cumulative IPC: 1.45861 (Simulation time: 0 hr 1 min 10 sec) 
Heartbeat CPU  0 instructions:   53000003 cycles:   36172842 heartbeat IPC: 1.91442 cumulative IPC: 1.46519 (Simulation time: 0 hr 1 min 12 sec) 
Heartbeat CPU  0 instructions:   54000003 cycles:   36695146 heartbeat IPC: 1.91459 cumulative IPC: 1.47158 (Simulation time: 0 hr 1 min 14 sec) 
Heartbeat CPU  0 instructions:   55000002 cycles:   37217471 heartbeat IPC: 1.91451 cumulative IPC: 1.47780 (Simulation time: 0 hr 1 min 17 sec) 
Heartbeat CPU  0 instructions:   56000000 cycles:   37739775 heartbeat IPC: 1.91459 cumulative IPC: 1.48385 (Simulation time: 0 hr 1 min 19 sec) 
Heartbeat CPU  0 instructions:   57000003 cycles:   38262126 heartbeat IPC: 1.91443 cumulative IPC: 1.48972 (Simulation time: 0 hr 1 min 21 sec) 
Heartbeat CPU  0 instructions:   58000003 cycles:   38784430 heartbeat IPC: 1.91459 cumulative IPC: 1.49545 (Simulation time: 0 hr 1 min 23 sec) 
Heartbeat CPU  0 instructions:   59000002 cycles:   39306755 heartbeat IPC: 1.91451 cumulative IPC: 1.50101 (Simulation time: 0 hr 1 min 25 sec) 
Heartbeat CPU  0 instructions:   60000000 cycles:   39917841 heartbeat IPC: 1.63643 cumulative IPC: 1.50309 (Simulation time: 0 hr 1 min 26 sec) 
Heartbeat CPU  0 instructions:   61000003 cycles:   40536462 heartbeat IPC: 1.61650 cumulative IPC: 1.50482 (Simulation time: 0 hr 1 min 27 sec) 
Heartbeat CPU  0 instructions:   62000003 cycles:   41155644 heartbeat IPC: 1.61503 cumulative IPC: 1.50648 (Simulation time: 0 hr 1 min 28 sec) 
Heartbeat CPU  0 instructions:   63000003 cycles:   41774144 heartbeat IPC: 1.61681 cumulative IPC: 1.50811 (Simulation time: 0 hr 1 min 29 sec) 
Heartbeat CPU  0 instructions:   64000000 cycles:   42392209 heartbeat IPC: 1.61795 cumulative IPC: 1.50971 (Simulation time: 0 hr 1 min 30 sec) 
Heartbeat CPU  0 instructions:   65000000 cycles:   43010387 heartbeat IPC: 1.61766 cumulative IPC: 1.51126 (Simulation time: 0 hr 1 min 31 sec) 
Heartbeat CPU  0 instructions:   66000003 cycles:   43628814 heartbeat IPC: 1.61701 cumulative IPC: 1.51276 (Simulation time: 0 hr 1 min 32 sec) 
Heartbeat CPU  0 instructions:   67000003 cycles:   44247761 heartbeat IPC: 1.61565 cumulative IPC: 1.51420 (Simulation time: 0 hr 1 min 33 sec) 
Heartbeat CPU  0 instructions:   68000000 cycles:   44866839 heartbeat IPC: 1.61530 cumulative IPC: 1.51560 (Simulation time: 0 hr 1 min 34 sec) 
Heartbeat CPU  0 instructions:   69000003 cycles:   45485270 heartbeat IPC: 1.61700 cumulative IPC: 1.51697 (Simulation time: 0 hr 1 min 35 sec) 
Heartbeat CPU  0 instructions:   70000003 cycles:   46103203 heartbeat IPC: 1.61830 cumulative IPC: 1.51833 (Simulation time: 0 hr 1 min 36 sec) 
Heartbeat CPU  0 instructions:   71000003 cycles:   46721296 heartbeat IPC: 1.61788 cumulative IPC: 1.51965 (Simulation time: 0 hr 1 min 37 sec) 
Heartbeat CPU  0 instructions:   72000000 cycles:   47340091 heartbeat IPC: 1.61604 cumulative IPC: 1.52091 (Simulation time: 0 hr 1 min 38 sec) 
Heartbeat CPU  0 instructions:   73000003 cycles:   47958946 heartbeat IPC: 1.61589 cumulative IPC: 1.52214 (Simulation time: 0 hr 1 min 39 sec) 
Heartbeat CPU  0 instructions:   74000003 cycles:   48577912 heartbeat IPC: 1.61560 cumulative IPC: 1.52333 (Simulation time: 0 hr 1 min 40 sec) 
Heartbeat CPU  0 instructions:   75000003 cycles:   49196235 heartbeat IPC: 1.61728 cumulative IPC: 1.52451 (Simulation time: 0 hr 1 min 41 sec) 
Heartbeat CPU  0 instructions:   76000000 cycles:   49814035 heartbeat IPC: 1.61864 cumulative IPC: 1.52567 (Simulation time: 0 hr 1 min 42 sec) 
Heartbeat CPU  0 instructions:   77000002 cycles:   50432744 heartbeat IPC: 1.61627 cumulative IPC: 1.52679 (Simulation time: 0 hr 1 min 43 sec) 
Heartbeat CPU  0 instructions:   78000001 cycles:   51051624 heartbeat IPC: 1.61582 cumulative IPC: 1.52787 (Simulation time: 0 hr 1 min 44 sec) 
Heartbeat CPU  0 instructions:   79000000 cycles:   51670697 heartbeat IPC: 1.61532 cumulative IPC: 1.52891 (Simulation time: 0 hr 1 min 45 sec) 
Heartbeat CPU  0 instructions:   80000000 cycles:   52290215 heartbeat IPC: 1.61416 cumulative IPC: 1.52992 (Simulation time: 0 hr 1 min 46 sec) 
Heartbeat CPU  0 instructions:   81000000 cycles:   52908240 heartbeat IPC: 1.61806 cumulative IPC: 1.53095 (Simulation time: 0 hr 1 min 47 sec) 
Heartbeat CPU  0 instructions:   82000000 cycles:   53526635 heartbeat IPC: 1.61709 cumulative IPC: 1.53195 (Simulation time: 0 hr 1 min 49 sec) 
Heartbeat CPU  0 instructions:   83000000 cycles:   54094801 heartbeat IPC: 1.76005 cumulative IPC: 1.53434 (Simulation time: 0 hr 1 min 50 sec) 
Heartbeat CPU  0 instructions:   84000000 cycles:   54621312 heartbeat IPC: 1.89930 cumulative IPC: 1.53786 (Simulation time: 0 hr 1 min 51 sec) 
Heartbeat CPU  0 instructions:   85000000 cycles:   55148801 heartbeat IPC: 1.89577 cumulative IPC: 1.54128 (Simulation time: 0 hr 1 min 52 sec) 
Heartbeat CPU  0 instructions:   86000000 cycles:   55676123 heartbeat IPC: 1.89637 cumulative IPC: 1.54465 (Simulation time: 0 hr 1 min 53 sec) 
Heartbeat CPU  0 instructions:   87000002 cycles:   56202870 heartbeat IPC: 1.89845 cumulative IPC: 1.54796 (Simulation time: 0 hr 1 min 54 sec) 
Heartbeat CPU  0 instructions:   88000000 cycles:   56728817 heartbeat IPC: 1.90133 cumulative IPC: 1.55124 (Simulation time: 0 hr 1 min 55 sec) 
Heartbeat CPU  0 instructions:   89000001 cycles:   57254495 heartbeat IPC: 1.90231 cumulative IPC: 1.55446 (Simulation time: 0 hr 1 min 56 sec) 
Heartbeat CPU  0 instructions:   90000001 cycles:   57781739 heartbeat IPC: 1.89666 cumulative IPC: 1.55759 (Simulation time: 0 hr 1 min 57 sec) 
Heartbeat CPU  0 instructions:   91000001 cycles:   58308895 heartbeat IPC: 1.89697 cumulative IPC: 1.56065 (Simulation time: 0 hr 1 min 58 sec) 
Heartbeat CPU  0 instructions:   92000000 cycles:   58836102 heartbeat IPC: 1.89679 cumulative IPC: 1.56367 (Simulation time: 0 hr 1 min 59 sec) 
Heartbeat CPU  0 instructions:   93000000 cycles:   59362979 heartbeat IPC: 1.89798 cumulative IPC: 1.56663 (Simulation time: 0 hr 2 min 0 sec) 
Heartbeat CPU  0 instructions:   94000000 cycles:   59888881 heartbeat IPC: 1.90149 cumulative IPC: 1.56957 (Simulation time: 0 hr 2 min 1 sec) 
Heartbeat CPU  0 instructions:   95000002 cycles:   60414664 heartbeat IPC: 1.90193 cumulative IPC: 1.57247 (Simulation time: 0 hr 2 min 2 sec) 
Heartbeat CPU  0 instructions:   96000000 cycles:   60941904 heartbeat IPC: 1.89667 cumulative IPC: 1.57527 (Simulation time: 0 hr 2 min 3 sec) 
Heartbeat CPU  0 instructions:   97000003 cycles:   61469220 heartbeat IPC: 1.89640 cumulative IPC: 1.57803 (Simulation time: 0 hr 2 min 4 sec) 
Heartbeat CPU  0 instructions:   98000001 cycles:   61996269 heartbeat IPC: 1.89735 cumulative IPC: 1.58074 (Simulation time: 0 hr 2 min 5 sec) 
Heartbeat CPU  0 instructions:   99000000 cycles:   62522372 heartbeat IPC: 1.90077 cumulative IPC: 1.58343 (Simulation time: 0 hr 2 min 6 sec) 
Heartbeat CPU  0 instructions:  100000000 cycles:   63048685 heartbeat IPC: 1.90001 cumulative IPC: 1.58608 (Simulation time: 0 hr 2 min 7 sec) 

Warmup complete CPU  0 instructions:  100000001 cycles:   63048686 (Simulation time: 0 hr 2 min 7 sec) 

Heartbeat CPU  0 instructions:  101000001 cycles:   63935850 heartbeat IPC: 1.12719 cumulative IPC: 1.12719 (Simulation time: 0 hr 2 min 9 sec) 
Heartbeat CPU  0 instructions:  102000000 cycles:   64823931 heartbeat IPC: 1.12602 cumulative IPC: 1.12660 (Simulation time: 0 hr 2 min 12 sec) 
Heartbeat CPU  0 instructions:  103000003 cycles:   65709881 heartbeat IPC: 1.12874 cumulative IPC: 1.12731 (Simulation time: 0 hr 2 min 14 sec) 
Heartbeat CPU  0 instructions:  104000000 cycles:   66596249 heartbeat IPC: 1.12820 cumulative IPC: 1.12753 (Simulation time: 0 hr 2 min 16 sec) 
Heartbeat CPU  0 instructions:  105000001 cycles:   67483706 heartbeat IPC: 1.12682 cumulative IPC: 1.12739 (Simulation time: 0 hr 2 min 18 sec) 
Heartbeat CPU  0 instructions:  106000000 cycles:   68450751 heartbeat IPC: 1.03408 cumulative IPC: 1.11069 (Simulation time: 0 hr 2 min 20 sec) 
Heartbeat CPU  0 instructions:  107000003 cycles:   69567388 heartbeat IPC: 0.89555 cumulative IPC: 1.07383 (Simulation time: 0 hr 2 min 22 sec) 
Heartbeat CPU  0 instructions:  108000000 cycles:   70684536 heartbeat IPC: 0.89513 cumulative IPC: 1.04769 (Simulation time: 0 hr 2 min 24 sec) 
Heartbeat CPU  0 instructions:  109000001 cycles:   71803765 heartbeat IPC: 0.89347 cumulative IPC: 1.02797 (Simulation time: 0 hr 2 min 27 sec) 
Heartbeat CPU  0 instructions:  110000000 cycles:   72920414 heartbeat IPC: 0.89554 cumulative IPC: 1.01299 (Simulation time: 0 hr 2 min 29 sec) 
Heartbeat CPU  0 instructions:  111000003 cycles:   74041800 heartbeat IPC: 0.89176 cumulative IPC: 1.00063 (Simulation time: 0 hr 2 min 31 sec) 
Heartbeat CPU  0 instructions:  112000000 cycles:   75158739 heartbeat IPC: 0.89530 cumulative IPC: 0.99091 (Simulation time: 0 hr 2 min 33 sec) 
Heartbeat CPU  0 instructions:  113000001 cycles:   76273183 heartbeat IPC: 0.89731 cumulative IPC: 0.98302 (Simulation time: 0 hr 2 min 35 sec) 
Heartbeat CPU  0 instructions:  114000000 cycles:   77393918 heartbeat IPC: 0.89227 cumulative IPC: 0.97593 (Simulation time: 0 hr 2 min 37 sec) 
Heartbeat CPU  0 instructions:  115000001 cycles:   78514013 heartbeat IPC: 0.89278 cumulative IPC: 0.96991 (Simulation time: 0 hr 2 min 39 sec) 
Heartbeat CPU  0 instructions:  116000000 cycles:   79629463 heartbeat IPC: 0.89650 cumulative IPC: 0.96497 (Simulation time: 0 hr 2 min 42 sec) 
Heartbeat CPU  0 instructions:  117000000 cycles:   80741306 heartbeat IPC: 0.89941 cumulative IPC: 0.96085 (Simulation time: 0 hr 2 min 44 sec) 
Heartbeat CPU  0 instructions:  118000003 cycles:   81856953 heartbeat IPC: 0.89634 cumulative IPC: 0.95703 (Simulation time: 0 hr 2 min 46 sec) 
Heartbeat CPU  0 instructions:  119000002 cycles:   82972561 heartbeat IPC: 0.89637 cumulative IPC: 0.95363 (Simulation time: 0 hr 2 min 48 sec) 
Heartbeat CPU  0 instructions:  120000000 cycles:   84083237 heartbeat IPC: 0.90035 cumulative IPC: 0.95082 (Simulation time: 0 hr 2 min 50 sec) 
Heartbeat CPU  0 instructions:  121000000 cycles:   85201858 heartbeat IPC: 0.89396 cumulative IPC: 0.94795 (Simulation time: 0 hr 2 min 52 sec) 
Heartbeat CPU  0 instructions:  122000003 cycles:   86319533 heartbeat IPC: 0.89472 cumulative IPC: 0.94539 (Simulation time: 0 hr 2 min 55 sec) 
Heartbeat CPU  0 instructions:  123000002 cycles:   87431477 heartbeat IPC: 0.89932 cumulative IPC: 0.94329 (Simulation time: 0 hr 2 min 57 sec) 
Heartbeat CPU  0 instructions:  124000000 cycles:   88548701 heartbeat IPC: 0.89507 cumulative IPC: 0.94118 (Simulation time: 0 hr 2 min 59 sec) 
Heartbeat CPU  0 instructions:  125000003 cycles:   89667434 heartbeat IPC: 0.89387 cumulative IPC: 0.93919 (Simulation time: 0 hr 3 min 1 sec) 
Heartbeat CPU  0 instructions:  126000003 cycles:   90782142 heartbeat IPC: 0.89710 cumulative IPC: 0.93750 (Simulation time: 0 hr 3 min 3 sec) 
Heartbeat CPU  0 instructions:  127000003 cycles:   91896012 heartbeat IPC: 0.89777 cumulative IPC: 0.93596 (Simulation time: 0 hr 3 min 5 sec) 
Heartbeat CPU  0 instructions:  128000000 cycles:   93014102 heartbeat IPC: 0.89438 cumulative IPC: 0.93441 (Simulation time: 0 hr 3 min 7 sec) 
Heartbeat CPU  0 instructions:  129000002 cycles:   94110999 heartbeat IPC: 0.91166 cumulative IPC: 0.93361 (Simulation time: 0 hr 3 min 9 sec) 
Heartbeat CPU  0 instructions:  130000003 cycles:   94962374 heartbeat IPC: 1.17457 cumulative IPC: 0.94004 (Simulation time: 0 hr 3 min 12 sec) 
Heartbeat CPU  0 instructions:  131000000 cycles:   95810687 heartbeat IPC: 1.17881 cumulative IPC: 0.94622 (Simulation time: 0 hr 3 min 14 sec) 
Heartbeat CPU  0 instructions:  132000000 cycles:   96658070 heartbeat IPC: 1.18010 cumulative IPC: 0.95211 (Simulation time: 0 hr 3 min 16 sec) 
Heartbeat CPU  0 instructions:  133000002 cycles:   97505932 heartbeat IPC: 1.17944 cumulative IPC: 0.95771 (Simulation time: 0 hr 3 min 18 sec) 
Heartbeat CPU  0 instructions:  134000001 cycles:   98355017 heartbeat IPC: 1.17774 cumulative IPC: 0.96300 (Simulation time: 0 hr 3 min 20 sec) 
Heartbeat CPU  0 instructions:  135000000 cycles:   99203170 heartbeat IPC: 1.17903 cumulative IPC: 0.96807 (Simulation time: 0 hr 3 min 22 sec) 
Heartbeat CPU  0 instructions:  136000000 cycles:  100051403 heartbeat IPC: 1.17892 cumulative IPC: 0.97290 (Simulation time: 0 hr 3 min 25 sec) 
Heartbeat CPU  0 instructions:  137000002 cycles:  100900357 heartbeat IPC: 1.17792 cumulative IPC: 0.97750 (Simulation time: 0 hr 3 min 27 sec) 
Heartbeat CPU  0 instructions:  138000001 cycles:  101747996 heartbeat IPC: 1.17975 cumulative IPC: 0.98193 (Simulation time: 0 hr 3 min 29 sec) 
Heartbeat CPU  0 instructions:  139000000 cycles:  102597066 heartbeat IPC: 1.17776 cumulative IPC: 0.98613 (Simulation time: 0 hr 3 min 31 sec) 
Heartbeat CPU  0 instructions:  140000000 cycles:  103443221 heartbeat IPC: 1.18182 cumulative IPC: 0.99023 (Simulation time: 0 hr 3 min 33 sec) 
Heartbeat CPU  0 instructions:  141000003 cycles:  104292282 heartbeat IPC: 1.17778 cumulative IPC: 0.99409 (Simulation time: 0 hr 3 min 35 sec) 
Heartbeat CPU  0 instructions:  142000000 cycles:  105141590 heartbeat IPC: 1.17743 cumulative IPC: 0.99779 (Simulation time: 0 hr 3 min 38 sec) 
Heartbeat CPU  0 instructions:  143000000 cycles:  105991230 heartbeat IPC: 1.17697 cumulative IPC: 1.00134 (Simulation time: 0 hr 3 min 40 sec) 
Heartbeat CPU  0 instructions:  144000000 cycles:  106839487 heartbeat IPC: 1.17889 cumulative IPC: 1.00478 (Simulation time: 0 hr 3 min 42 sec) 
Heartbeat CPU  0 instructions:  145000001 cycles:  107689234 heartbeat IPC: 1.17682 cumulative IPC: 1.00805 (Simulation time: 0 hr 3 min 44 sec) 
Heartbeat CPU  0 instructions:  146000001 cycles:  108537050 heartbeat IPC: 1.17950 cumulative IPC: 1.01125 (Simulation time: 0 hr 3 min 46 sec) 
Heartbeat CPU  0 instructions:  147000003 cycles:  109386315 heartbeat IPC: 1.17749 cumulative IPC: 1.01429 (Simulation time: 0 hr 3 min 48 sec) 
Heartbeat CPU  0 instructions:  148000000 cycles:  110235873 heartbeat IPC: 1.17708 cumulative IPC: 1.01723 (Simulation time: 0 hr 3 min 50 sec) 
Heartbeat CPU  0 instructions:  149000002 cycles:  111085357 heartbeat IPC: 1.17719 cumulative IPC: 1.02005 (Simulation time: 0 hr 3 min 53 sec) 
Heartbeat CPU  0 instructions:  150000000 cycles:  111933877 heartbeat IPC: 1.17852 cumulative IPC: 1.02280 (Simulation time: 0 hr 3 min 55 sec) 
Heartbeat CPU  0 instructions:  151000002 cycles:  112781221 heartbeat IPC: 1.18016 cumulative IPC: 1.02549 (Simulation time: 0 hr 3 min 57 sec) 
Heartbeat CPU  0 instructions:  152000000 cycles:  113628227 heartbeat IPC: 1.18063 cumulative IPC: 1.02808 (Simulation time: 0 hr 3 min 59 sec) 
Heartbeat CPU  0 instructions:  153000000 cycles:  114731211 heartbeat IPC: 0.90663 cumulative IPC: 1.02549 (Simulation time: 0 hr 4 min 1 sec) 
Heartbeat CPU  0 instructions:  154000002 cycles:  115841078 heartbeat IPC: 0.90101 cumulative IPC: 1.02287 (Simulation time: 0 hr 4 min 3 sec) 
Heartbeat CPU  0 instructions:  155000001 cycles:  116965181 heartbeat IPC: 0.88960 cumulative IPC: 1.02010 (Simulation time: 0 hr 4 min 5 sec) 
Heartbeat CPU  0 instructions:  156000000 cycles:  118076901 heartbeat IPC: 0.89951 cumulative IPC: 1.01766 (Simulation time: 0 hr 4 min 8 sec) 
Heartbeat CPU  0 instructions:  157000003 cycles:  119195903 heartbeat IPC: 0.89366 cumulative IPC: 1.01519 (Simulation time: 0 hr 4 min 10 sec) 
Heartbeat CPU  0 instructions:  158000002 cycles:  120312687 heartbeat IPC: 0.89543 cumulative IPC: 1.01285 (Simulation time: 0 hr 4 min 12 sec) 
Heartbeat CPU  0 instructions:  159000001 cycles:  121424566 heartbeat IPC: 0.89938 cumulative IPC: 1.01069 (Simulation time: 0 hr 4 min 14 sec) 
Heartbeat CPU  0 instructions:  160000000 cycles:  122536231 heartbeat IPC: 0.89955 cumulative IPC: 1.00861 (Simulation time: 0 hr 4 min 16 sec) 
Heartbeat CPU  0 instructions:  161000003 cycles:  123664541 heartbeat IPC: 0.88628 cumulative IPC: 1.00634 (Simulation time: 0 hr 4 min 18 sec) 
Heartbeat CPU  0 instructions:  162000003 cycles:  124773886 heartbeat IPC: 0.90143 cumulative IPC: 1.00445 (Simulation time: 0 hr 4 min 20 sec) 
Heartbeat CPU  0 instructions:  163000003 cycles:  125886302 heartbeat IPC: 0.89894 cumulative IPC: 1.00258 (Simulation time: 0 hr 4 min 22 sec) 
Heartbeat CPU  0 instructions:  164000000 cycles:  126997028 heartbeat IPC: 0.90031 cumulative IPC: 1.00081 (Simulation time: 0 hr 4 min 25 sec) 
Heartbeat CPU  0 instructions:  165000003 cycles:  128108705 heartbeat IPC: 0.89954 cumulative IPC: 0.99908 (Simulation time: 0 hr 4 min 27 sec) 
Heartbeat CPU  0 instructions:  166000003 cycles:  129217783 heartbeat IPC: 0.90165 cumulative IPC: 0.99744 (Simulation time: 0 hr 4 min 29 sec) 
Heartbeat CPU  0 instructions:  167000003 cycles:  130334634 heartbeat IPC: 0.89537 cumulative IPC: 0.99575 (Simulation time: 0 hr 4 min 31 sec) 
Heartbeat CPU  0 instructions:  168000000 cycles:  131443861 heartbeat IPC: 0.90153 cumulative IPC: 0.99422 (Simulation time: 0 hr 4 min 33 sec) 
Heartbeat CPU  0 instructions:  169000003 cycles:  132557707 heartbeat IPC: 0.89779 cumulative IPC: 0.99268 (Simulation time: 0 hr 4 min 35 sec) 
Heartbeat CPU  0 instructions:  170000003 cycles:  133668356 heartbeat IPC: 0.90037 cumulative IPC: 0.99123 (Simulation time: 0 hr 4 min 37 sec) 
Heartbeat CPU  0 instructions:  171000003 cycles:  134786073 heartbeat IPC: 0.89468 cumulative IPC: 0.98972 (Simulation time: 0 hr 4 min 39 sec) 
Heartbeat CPU  0 instructions:  172000000 cycles:  135901792 heartbeat IPC: 0.89628 cumulative IPC: 0.98829 (Simulation time: 0 hr 4 min 42 sec) 
Heartbeat CPU  0 instructions:  173000003 cycles:  137011531 heartbeat IPC: 0.90112 cumulative IPC: 0.98698 (Simulation time: 0 hr 4 min 44 sec) 
Heartbeat CPU  0 instructions:  174000003 cycles:  138131235 heartbeat IPC: 0.89309 cumulative IPC: 0.98558 (Simulation time: 0 hr 4 min 46 sec) 
Heartbeat CPU  0 instructions:  175000003 cycles:  139242057 heartbeat IPC: 0.90023 cumulative IPC: 0.98434 (Simulation time: 0 hr 4 min 48 sec) 
Heartbeat CPU  0 instructions:  176000000 cycles:  140279249 heartbeat IPC: 0.96414 cumulative IPC: 0.98407 (Simulation time: 0 hr 4 min 50 sec) 
Heartbeat CPU  0 instructions:  177000003 cycles:  141260652 heartbeat IPC: 1.01895 cumulative IPC: 0.98450 (Simulation time: 0 hr 4 min 52 sec) 
Heartbeat CPU  0 instructions:  178000003 cycles:  142213849 heartbeat IPC: 1.04910 cumulative IPC: 0.98528 (Simulation time: 0 hr 4 min 55 sec) 
Heartbeat CPU  0 instructions:  179000000 cycles:  143202583 heartbeat IPC: 1.01139 cumulative IPC: 0.98560 (Simulation time: 0 hr 4 min 57 sec) 
Heartbeat CPU  0 instructions:  180000000 cycles:  144180001 heartbeat IPC: 1.02310 cumulative IPC: 0.98606 (Simulation time: 0 hr 4 min 59 sec) 
Heartbeat CPU  0 instructions:  181000002 cycles:  145190337 heartbeat IPC: 0.98977 cumulative IPC: 0.98610 (Simulation time: 0 hr 5 min 1 sec) 
Heartbeat CPU  0 instructions:  182000001 cycles:  146177010 heartbeat IPC: 1.01351 cumulative IPC: 0.98643 (Simulation time: 0 hr 5 min 3 sec) 
Heartbeat CPU  0 instructions:  183000001 cycles:  147139976 heartbeat IPC: 1.03846 cumulative IPC: 0.98702 (Simulation time: 0 hr 5 min 5 sec) 
Heartbeat CPU  0 instructions:  184000000 cycles:  148104147 heartbeat IPC: 1.03716 cumulative IPC: 0.98759 (Simulation time: 0 hr 5 min 8 sec) 
Heartbeat CPU  0 instructions:  185000000 cycles:  149058883 heartbeat IPC: 1.04741 cumulative IPC: 0.98825 (Simulation time: 0 hr 5 min 10 sec) 
Heartbeat CPU  0 instructions:  186000000 cycles:  150034063 heartbeat IPC: 1.02545 cumulative IPC: 0.98867 (Simulation time: 0 hr 5 min 12 sec) 
Heartbeat CPU  0 instructions:  187000002 cycles:  150987599 heartbeat IPC: 1.04873 cumulative IPC: 0.98932 (Simulation time: 0 hr 5 min 14 sec) 
Heartbeat CPU  0 instructions:  188000000 cycles:  151925925 heartbeat IPC: 1.06573 cumulative IPC: 0.99013 (Simulation time: 0 hr 5 min 16 sec) 
Heartbeat CPU  0 instructions:  189000003 cycles:  152864507 heartbeat IPC: 1.06544 cumulative IPC: 0.99092 (Simulation time: 0 hr 5 min 18 sec) 
Heartbeat CPU  0 instructions:  190000003 cycles:  153803263 heartbeat IPC: 1.06524 cumulative IPC: 0.99169 (Simulation time: 0 hr 5 min 20 sec) 
Heartbeat CPU  0 instructions:  191000003 cycles:  154740860 heartbeat IPC: 1.06656 cumulative IPC: 0.99245 (Simulation time: 0 hr 5 min 23 sec) 
Heartbeat CPU  0 instructions:  192000000 cycles:  155679874 heartbeat IPC: 1.06494 cumulative IPC: 0.99319 (Simulation time: 0 hr 5 min 25 sec) 
Heartbeat CPU  0 instructions:  193000000 cycles:  156619229 heartbeat IPC: 1.06456 cumulative IPC: 0.99390 (Simulation time: 0 hr 5 min 27 sec) 
Heartbeat CPU  0 instructions:  194000000 cycles:  157557699 heartbeat IPC: 1.06556 cumulative IPC: 0.99461 (Simulation time: 0 hr 5 min 29 sec) 
Heartbeat CPU  0 instructions:  195000000 cycles:  158497334 heartbeat IPC: 1.06424 cumulative IPC: 0.99530 (Simulation time: 0 hr 5 min 31 sec) 
Heartbeat CPU  0 instructions:  196000000 cycles:  159436099 heartbeat IPC: 1.06523 cumulative IPC: 0.99598 (Simulation time: 0 hr 5 min 33 sec) 
Heartbeat CPU  0 instructions:  197000001 cycles:  160373598 heartbeat IPC: 1.06667 cumulative IPC: 0.99666 (Simulation time: 0 hr 5 min 35 sec) 
Heartbeat CPU  0 instructions:  198000001 cycles:  161313104 heartbeat IPC: 1.06439 cumulative IPC: 0.99731 (Simulation time: 0 hr 5 min 38 sec) 
Heartbeat CPU  0 instructions:  199000003 cycles:  162632464 heartbeat IPC: 0.75794 cumulative IPC: 0.99414 (Simulation time: 0 hr 5 min 40 sec) 
Heartbeat CPU  0 instructions:  200000000 cycles:  164668820 heartbeat IPC: 0.49107 cumulative IPC: 0.98406 (Simulation time: 0 hr 5 min 42 sec) 
Heartbeat CPU  0 instructions:  201000001 cycles:  166721290 heartbeat IPC: 0.48722 cumulative IPC: 0.97422 (Simulation time: 0 hr 5 min 44 sec) 
Heartbeat CPU  0 instructions:  202000000 cycles:  168735160 heartbeat IPC: 0.49656 cumulative IPC: 0.96512 (Simulation time: 0 hr 5 min 47 sec) 
Heartbeat CPU  0 instructions:  203000001 cycles:  170810837 heartbeat IPC: 0.48177 cumulative IPC: 0.95581 (Simulation time: 0 hr 5 min 49 sec) 
Heartbeat CPU  0 instructions:  204000000 cycles:  172844787 heartbeat IPC: 0.49165 cumulative IPC: 0.94721 (Simulation time: 0 hr 5 min 51 sec) 
Heartbeat CPU  0 instructions:  205000000 cycles:  174860685 heartbeat IPC: 0.49606 cumulative IPC: 0.93908 (Simulation time: 0 hr 5 min 54 sec) 
Heartbeat CPU  0 instructions:  206000001 cycles:  176929078 heartbeat IPC: 0.48347 cumulative IPC: 0.93080 (Simulation time: 0 hr 5 min 56 sec) 
Heartbeat CPU  0 instructions:  207000000 cycles:  178930574 heartbeat IPC: 0.49963 cumulative IPC: 0.92335 (Simulation time: 0 hr 5 min 58 sec) 
Heartbeat CPU  0 instructions:  208000000 cycles:  180950686 heartbeat IPC: 0.49502 cumulative IPC: 0.91601 (Simulation time: 0 hr 6 min 1 sec) 
Heartbeat CPU  0 instructions:  209000000 cycles:  182986781 heartbeat IPC: 0.49114 cumulative IPC: 0.90880 (Simulation time: 0 hr 6 min 3 sec) 
Heartbeat CPU  0 instructions:  210000000 cycles:  185014080 heartbeat IPC: 0.49327 cumulative IPC: 0.90190 (Simulation time: 0 hr 6 min 5 sec) 
Heartbeat CPU  0 instructions:  211000000 cycles:  187032515 heartbeat IPC: 0.49543 cumulative IPC: 0.89528 (Simulation time: 0 hr 6 min 8 sec) 
Heartbeat CPU  0 instructions:  212000000 cycles:  189034963 heartbeat IPC: 0.49939 cumulative IPC: 0.88899 (Simulation time: 0 hr 6 min 10 sec) 
Heartbeat CPU  0 instructions:  213000003 cycles:  191058974 heartbeat IPC: 0.49407 cumulative IPC: 0.88274 (Simulation time: 0 hr 6 min 12 sec) 
Heartbeat CPU  0 instructions:  214000002 cycles:  193090615 heartbeat IPC: 0.49221 cumulative IPC: 0.87664 (Simulation time: 0 hr 6 min 15 sec) 
Heartbeat CPU  0 instructions:  215000002 cycles:  195170495 heartbeat IPC: 0.48080 cumulative IPC: 0.87041 (Simulation time: 0 hr 6 min 17 sec) 
Heartbeat CPU  0 instructions:  216000000 cycles:  197201653 heartbeat IPC: 0.49233 cumulative IPC: 0.86468 (Simulation time: 0 hr 6 min 19 sec) 
Heartbeat CPU  0 instructions:  217000001 cycles:  199220729 heartbeat IPC: 0.49528 cumulative IPC: 0.85921 (Simulation time: 0 hr 6 min 21 sec) 
Heartbeat CPU  0 instructions:  218000000 cycles:  201261770 heartbeat IPC: 0.48995 cumulative IPC: 0.85375 (Simulation time: 0 hr 6 min 24 sec) 
Heartbeat CPU  0 instructions:  219000000 cycles:  203178194 heartbeat IPC: 0.52181 cumulative IPC: 0.84921 (Simulation time: 0 hr 6 min 27 sec) 
Heartbeat CPU  0 instructions:  220000000 cycles:  205194265 heartbeat IPC: 0.49601 cumulative IPC: 0.84420 (Simulation time: 0 hr 6 min 30 sec) 
Heartbeat CPU  0 instructions:  221000000 cycles:  207268425 heartbeat IPC: 0.48212 cumulative IPC: 0.83900 (Simulation time: 0 hr 6 min 34 sec) 
Heartbeat CPU  0 instructions:  222000000 cycles:  209276383 heartbeat IPC: 0.49802 cumulative IPC: 0.83432 (Simulation time: 0 hr 6 min 37 sec) 
Heartbeat CPU  0 instructions:  223000000 cycles:  211328387 heartbeat IPC: 0.48733 cumulative IPC: 0.82951 (Simulation time: 0 hr 6 min 40 sec) 
Heartbeat CPU  0 instructions:  224000000 cycles:  213315563 heartbeat IPC: 0.50323 cumulative IPC: 0.82520 (Simulation time: 0 hr 6 min 44 sec) 
Heartbeat CPU  0 instructions:  225000000 cycles:  215383637 heartbeat IPC: 0.48354 cumulative IPC: 0.82056 (Simulation time: 0 hr 6 min 47 sec) 
Heartbeat CPU  0 instructions:  226000000 cycles:  217444846 heartbeat IPC: 0.48515 cumulative IPC: 0.81608 (Simulation time: 0 hr 6 min 51 sec) 
Heartbeat CPU  0 instructions:  227000000 cycles:  219480990 heartbeat IPC: 0.49112 cumulative IPC: 0.81185 (Simulation time: 0 hr 6 min 54 sec) 
Heartbeat CPU  0 instructions:  228000000 cycles:  221552255 heartbeat IPC: 0.48280 cumulative IPC: 0.80755 (Simulation time: 0 hr 6 min 58 sec) 
Heartbeat CPU  0 instructions:  229000000 cycles:  223614635 heartbeat IPC: 0.48488 cumulative IPC: 0.80341 (Simulation time: 0 hr 7 min 1 sec) 
Heartbeat CPU  0 instructions:  230000000 cycles:  225698932 heartbeat IPC: 0.47978 cumulative IPC: 0.79926 (Simulation time: 0 hr 7 min 5 sec) 
Heartbeat CPU  0 instructions:  231000000 cycles:  227719502 heartbeat IPC: 0.49491 cumulative IPC: 0.79553 (Simulation time: 0 hr 7 min 9 sec) 
Heartbeat CPU  0 instructions:  232000000 cycles:  229784420 heartbeat IPC: 0.48428 cumulative IPC: 0.79167 (Simulation time: 0 hr 7 min 12 sec) 
Heartbeat CPU  0 instructions:  233000001 cycles:  231809879 heartbeat IPC: 0.49372 cumulative IPC: 0.78810 (Simulation time: 0 hr 7 min 16 sec) 
Heartbeat CPU  0 instructions:  234000000 cycles:  233002963 heartbeat IPC: 0.83816 cumulative IPC: 0.78845 (Simulation time: 0 hr 7 min 18 sec) 
Heartbeat CPU  0 instructions:  235000003 cycles:  234127991 heartbeat IPC: 0.88887 cumulative IPC: 0.78911 (Simulation time: 0 hr 7 min 20 sec) 
Heartbeat CPU  0 instructions:  236000000 cycles:  235268919 heartbeat IPC: 0.87648 cumulative IPC: 0.78969 (Simulation time: 0 hr 7 min 22 sec) 
Heartbeat CPU  0 instructions:  237000001 cycles:  236383010 heartbeat IPC: 0.89759 cumulative IPC: 0.79038 (Simulation time: 0 hr 7 min 24 sec) 
Heartbeat CPU  0 instructions:  238000000 cycles:  237508372 heartbeat IPC: 0.88860 cumulative IPC: 0.79101 (Simulation time: 0 hr 7 min 27 sec) 
Heartbeat CPU  0 instructions:  239000002 cycles:  238628232 heartbeat IPC: 0.89297 cumulative IPC: 0.79166 (Simulation time: 0 hr 7 min 29 sec) 
Heartbeat CPU  0 instructions:  240000000 cycles:  239742900 heartbeat IPC: 0.89713 cumulative IPC: 0.79233 (Simulation time: 0 hr 7 min 31 sec) 
Heartbeat CPU  0 instructions:  241000000 cycles:  240859050 heartbeat IPC: 0.89594 cumulative IPC: 0.79298 (Simulation time: 0 hr 7 min 33 sec) 
Heartbeat CPU  0 instructions:  242000003 cycles:  241989185 heartbeat IPC: 0.88485 cumulative IPC: 0.79356 (Simulation time: 0 hr 7 min 35 sec) 
Heartbeat CPU  0 instructions:  243000002 cycles:  243104470 heartbeat IPC: 0.89663 cumulative IPC: 0.79420 (Simulation time: 0 hr 7 min 38 sec) 
Heartbeat CPU  0 instructions:  244000000 cycles:  244221466 heartbeat IPC: 0.89526 cumulative IPC: 0.79482 (Simulation time: 0 hr 7 min 40 sec) 
Heartbeat CPU  0 instructions:  245000001 cycles:  245337213 heartbeat IPC: 0.89626 cumulative IPC: 0.79544 (Simulation time: 0 hr 7 min 42 sec) 
Heartbeat CPU  0 instructions:  246000002 cycles:  246454273 heartbeat IPC: 0.89521 cumulative IPC: 0.79605 (Simulation time: 0 hr 7 min 44 sec) 
Heartbeat CPU  0 instructions:  247000000 cycles:  247567607 heartbeat IPC: 0.89820 cumulative IPC: 0.79667 (Simulation time: 0 hr 7 min 46 sec) 
Heartbeat CPU  0 instructions:  248000000 cycles:  248684632 heartbeat IPC: 0.89524 cumulative IPC: 0.79726 (Simulation time: 0 hr 7 min 48 sec) 
Heartbeat CPU  0 instructions:  249000001 cycles:  249797243 heartbeat IPC: 0.89879 cumulative IPC: 0.79786 (Simulation time: 0 hr 7 min 51 sec) 
Heartbeat CPU  0 instructions:  250000003 cycles:  250915561 heartbeat IPC: 0.89420 cumulative IPC: 0.79844 (Simulation time: 0 hr 7 min 53 sec) 
Heartbeat CPU  0 instructions:  251000000 cycles:  252032789 heartbeat IPC: 0.89507 cumulative IPC: 0.79901 (Simulation time: 0 hr 7 min 55 sec) 
Heartbeat CPU  0 instructions:  252000000 cycles:  253158064 heartbeat IPC: 0.88867 cumulative IPC: 0.79954 (Simulation time: 0 hr 7 min 57 sec) 
Heartbeat CPU  0 instructions:  253000000 cycles:  254275642 heartbeat IPC: 0.89479 cumulative IPC: 0.80010 (Simulation time: 0 hr 7 min 59 sec) 
Heartbeat CPU  0 instructions:  254000001 cycles:  255388063 heartbeat IPC: 0.89894 cumulative IPC: 0.80067 (Simulation time: 0 hr 8 min 1 sec) 
Heartbeat CPU  0 instructions:  255000002 cycles:  256512155 heartbeat IPC: 0.88961 cumulative IPC: 0.80118 (Simulation time: 0 hr 8 min 4 sec) 
Heartbeat CPU  0 instructions:  256000000 cycles:  257625578 heartbeat IPC: 0.89813 cumulative IPC: 0.80174 (Simulation time: 0 hr 8 min 6 sec) 
Heartbeat CPU  0 instructions:  257000001 cycles:  259240976 heartbeat IPC: 0.61904 cumulative IPC: 0.80024 (Simulation time: 0 hr 8 min 8 sec) 
Heartbeat CPU  0 instructions:  258000002 cycles:  261038873 heartbeat IPC: 0.55621 cumulative IPC: 0.79802 (Simulation time: 0 hr 8 min 10 sec) 
Heartbeat CPU  0 instructions:  259000000 cycles:  262856047 heartbeat IPC: 0.55030 cumulative IPC: 0.79577 (Simulation time: 0 hr 8 min 13 sec) 
Heartbeat CPU  0 instructions:  260000000 cycles:  264702433 heartbeat IPC: 0.54160 cumulative IPC: 0.79344 (Simulation time: 0 hr 8 min 15 sec) 
Heartbeat CPU  0 instructions:  261000003 cycles:  266550369 heartbeat IPC: 0.54115 cumulative IPC: 0.79115 (Simulation time: 0 hr 8 min 17 sec) 
Heartbeat CPU  0 instructions:  262000003 cycles:  268367868 heartbeat IPC: 0.55021 cumulative IPC: 0.78902 (Simulation time: 0 hr 8 min 19 sec) 
Heartbeat CPU  0 instructions:  263000000 cycles:  270148115 heartbeat IPC: 0.56172 cumulative IPC: 0.78706 (Simulation time: 0 hr 8 min 22 sec) 
Heartbeat CPU  0 instructions:  264000000 cycles:  271995131 heartbeat IPC: 0.54141 cumulative IPC: 0.78489 (Simulation time: 0 hr 8 min 24 sec) 
Heartbeat CPU  0 instructions:  265000003 cycles:  273817832 heartbeat IPC: 0.54864 cumulative IPC: 0.78285 (Simulation time: 0 hr 8 min 26 sec) 
Heartbeat CPU  0 instructions:  266000000 cycles:  275638056 heartbeat IPC: 0.54938 cumulative IPC: 0.78085 (Simulation time: 0 hr 8 min 28 sec) 
Heartbeat CPU  0 instructions:  267000001 cycles:  277436560 heartbeat IPC: 0.55602 cumulative IPC: 0.77896 (Simulation time: 0 hr 8 min 30 sec) 
Heartbeat CPU  0 instructions:  268000000 cycles:  279227916 heartbeat IPC: 0.55824 cumulative IPC: 0.77713 (Simulation time: 0 hr 8 min 33 sec) 
Heartbeat CPU  0 instructions:  269000000 cycles:  281044486 heartbeat IPC: 0.55049 cumulative IPC: 0.77524 (Simulation time: 0 hr 8 min 35 sec) 
Heartbeat CPU  0 instructions:  270000000 cycles:  282875894 heartbeat IPC: 0.54603 cumulative IPC: 0.77333 (Simulation time: 0 hr 8 min 37 sec) 
Heartbeat CPU  0 instructions:  271000002 cycles:  284698923 heartbeat IPC: 0.54854 cumulative IPC: 0.77149 (Simulation time: 0 hr 8 min 39 sec) 
Heartbeat CPU  0 instructions:  272000000 cycles:  286543434 heartbeat IPC: 0.54215 cumulative IPC: 0.76959 (Simulation time: 0 hr 8 min 42 sec) 
Heartbeat CPU  0 instructions:  273000001 cycles:  288368931 heartbeat IPC: 0.54780 cumulative IPC: 0.76780 (Simulation time: 0 hr 8 min 44 sec) 
Heartbeat CPU  0 instructions:  274000003 cycles:  290172039 heartbeat IPC: 0.55460 cumulative IPC: 0.76610 (Simulation time: 0 hr 8 min 46 sec) 
Heartbeat CPU  0 instructions:  275000002 cycles:  292020382 heartbeat IPC: 0.54102 cumulative IPC: 0.76429 (Simulation time: 0 hr 8 min 48 sec) 
Heartbeat CPU  0 instructions:  276000000 cycles:  293803175 heartbeat IPC: 0.56092 cumulative IPC: 0.76272 (Simulation time: 0 hr 8 min 51 sec) 
Heartbeat CPU  0 instructions:  277000003 cycles:  295813641 heartbeat IPC: 0.49740 cumulative IPC: 0.76042 (Simulation time: 0 hr 8 min 54 sec) 
Heartbeat CPU  0 instructions:  278000003 cycles:  297836054 heartbeat IPC: 0.49446 cumulative IPC: 0.75813 (Simulation time: 0 hr 8 min 58 sec) 
Heartbeat CPU  0 instructions:  279000003 cycles:  299853376 heartbeat IPC: 0.49571 cumulative IPC: 0.75590 (Simulation time: 0 hr 9 min 2 sec) 
Heartbeat CPU  0 instructions:  280000000 cycles:  301879963 heartbeat IPC: 0.49344 cumulative IPC: 0.75367 (Simulation time: 0 hr 9 min 5 sec) 
Heartbeat CPU  0 instructions:  281000003 cycles:  303911521 heartbeat IPC: 0.49223 cumulative IPC: 0.75147 (Simulation time: 0 hr 9 min 9 sec) 
Heartbeat CPU  0 instructions:  282000003 cycles:  305964048 heartbeat IPC: 0.48720 cumulative IPC: 0.74923 (Simulation time: 0 hr 9 min 13 sec) 
Heartbeat CPU  0 instructions:  283000003 cycles:  308029329 heartbeat IPC: 0.48420 cumulative IPC: 0.74700 (Simulation time: 0 hr 9 min 16 sec) 
Heartbeat CPU  0 instructions:  284000000 cycles:  309996141 heartbeat IPC: 0.50844 cumulative IPC: 0.74510 (Simulation time: 0 hr 9 min 20 sec) 
Heartbeat CPU  0 instructions:  285000003 cycles:  312070416 heartbeat IPC: 0.48210 cumulative IPC: 0.74291 (Simulation time: 0 hr 9 min 23 sec) 
Heartbeat CPU  0 instructions:  286000003 cycles:  314095240 heartbeat IPC: 0.49387 cumulative IPC: 0.74090 (Simulation time: 0 hr 9 min 27 sec) 
Heartbeat CPU  0 instructions:  287000003 cycles:  316140648 heartbeat IPC: 0.48890 cumulative IPC: 0.73886 (Simulation time: 0 hr 9 min 30 sec) 
Heartbeat CPU  0 instructions:  288000000 cycles:  318202068 heartbeat IPC: 0.48510 cumulative IPC: 0.73681 (Simulation time: 0 hr 9 min 34 sec) 
Heartbeat CPU  0 instructions:  289000003 cycles:  320253485 heartbeat IPC: 0.48747 cumulative IPC: 0.73482 (Simulation time: 0 hr 9 min 38 sec) 
Heartbeat CPU  0 instructions:  290000003 cycles:  322279934 heartbeat IPC: 0.49347 cumulative IPC: 0.73294 (Simulation time: 0 hr 9 min 41 sec) 
Heartbeat CPU  0 instructions:  291000002 cycles:  324194395 heartbeat IPC: 0.52234 cumulative IPC: 0.73139 (Simulation time: 0 hr 9 min 44 sec) 
Heartbeat CPU  0 instructions:  292000000 cycles:  325957749 heartbeat IPC: 0.56710 cumulative IPC: 0.73029 (Simulation time: 0 hr 9 min 46 sec) 
Heartbeat CPU  0 instructions:  293000002 cycles:  327756704 heartbeat IPC: 0.55588 cumulative IPC: 0.72911 (Simulation time: 0 hr 9 min 48 sec) 
Heartbeat CPU  0 instructions:  294000000 cycles:  329554829 heartbeat IPC: 0.55613 cumulative IPC: 0.72794 (Simulation time: 0 hr 9 min 51 sec) 
Heartbeat CPU  0 instructions:  295000002 cycles:  331355015 heartbeat IPC: 0.55550 cumulative IPC: 0.72678 (Simulation time: 0 hr 9 min 53 sec) 
Heartbeat CPU  0 instructions:  296000000 cycles:  333128437 heartbeat IPC: 0.56388 cumulative IPC: 0.72571 (Simulation time: 0 hr 9 min 55 sec) 
Heartbeat CPU  0 instructions:  297000002 cycles:  334880145 heartbeat IPC: 0.57087 cumulative IPC: 0.72471 (Simulation time: 0 hr 9 min 57 sec) 
Heartbeat CPU  0 instructions:  298000000 cycles:  336710021 heartbeat IPC: 0.54648 cumulative IPC: 0.72352 (Simulation time: 0 hr 10 min 0 sec) 
Heartbeat CPU  0 instructions:  299000000 cycles:  338493398 heartbeat IPC: 0.56073 cumulative IPC: 0.72247 (Simulation time: 0 hr 10 min 2 sec) 
Heartbeat CPU  0 instructions:  300000000 cycles:  340255380 heartbeat IPC: 0.56754 cumulative IPC: 0.72148 (Simulation time: 0 hr 10 min 4 sec) 
Heartbeat CPU  0 instructions:  301000000 cycles:  342019819 heartbeat IPC: 0.56675 cumulative IPC: 0.72050 (Simulation time: 0 hr 10 min 6 sec) 
Heartbeat CPU  0 instructions:  302000000 cycles:  343787713 heartbeat IPC: 0.56564 cumulative IPC: 0.71953 (Simulation time: 0 hr 10 min 8 sec) 
Heartbeat CPU  0 instructions:  303000000 cycles:  345578989 heartbeat IPC: 0.55826 cumulative IPC: 0.71851 (Simulation time: 0 hr 10 min 11 sec) 
Heartbeat CPU  0 instructions:  304000000 cycles:  347371829 heartbeat IPC: 0.55777 cumulative IPC: 0.71749 (Simulation time: 0 hr 10 min 13 sec) 
Heartbeat CPU  0 instructions:  305000000 cycles:  349131485 heartbeat IPC: 0.56829 cumulative IPC: 0.71658 (Simulation time: 0 hr 10 min 15 sec) 
Heartbeat CPU  0 instructions:  306000000 cycles:  350934303 heartbeat IPC: 0.55469 cumulative IPC: 0.71556 (Simulation time: 0 hr 10 min 17 sec) 
Heartbeat CPU  0 instructions:  307000001 cycles:  352747638 heartbeat IPC: 0.55147 cumulative IPC: 0.71453 (Simulation time: 0 hr 10 min 20 sec) 
Heartbeat CPU  0 instructions:  308000000 cycles:  354519530 heartbeat IPC: 0.56437 cumulative IPC: 0.71362 (Simulation time: 0 hr 10 min 22 sec) 
Heartbeat CPU  0 instructions:  309000000 cycles:  356331371 heartbeat IPC: 0.55192 cumulative IPC: 0.71262 (Simulation time: 0 hr 10 min 24 sec) 
Heartbeat CPU  0 instructions:  310000003 cycles:  358059941 heartbeat IPC: 0.57851 cumulative IPC: 0.71184 (Simulation time: 0 hr 10 min 26 sec) 
Heartbeat CPU  0 instructions:  311000003 cycles:  360012574 heartbeat IPC: 0.51213 cumulative IPC: 0.71052 (Simulation time: 0 hr 10 min 30 sec) 
Heartbeat CPU  0 instructions:  312000000 cycles:  361934770 heartbeat IPC: 0.52024 cumulative IPC: 0.70930 (Simulation time: 0 hr 10 min 33 sec) 
Heartbeat CPU  0 instructions:  313000003 cycles:  363855810 heartbeat IPC: 0.52055 cumulative IPC: 0.70809 (Simulation time: 0 hr 10 min 37 sec) 
Heartbeat CPU  0 instructions:  314000003 cycles:  365781638 heartbeat IPC: 0.51926 cumulative IPC: 0.70689 (Simulation time: 0 hr 10 min 40 sec) 
Heartbeat CPU  0 instructions:  315000003 cycles:  367751198 heartbeat IPC: 0.50773 cumulative IPC: 0.70561 (Simulation time: 0 hr 10 min 44 sec) 
Heartbeat CPU  0 instructions:  316000000 cycles:  369637010 heartbeat IPC: 0.53027 cumulative IPC: 0.70453 (Simulation time: 0 hr 10 min 47 sec) 
Heartbeat CPU  0 instructions:  317000003 cycles:  371604958 heartbeat IPC: 0.50815 cumulative IPC: 0.70328 (Simulation time: 0 hr 10 min 51 sec) 
Heartbeat CPU  0 instructions:  318000003 cycles:  373499411 heartbeat IPC: 0.52786 cumulative IPC: 0.70220 (Simulation time: 0 hr 10 min 54 sec) 
Heartbeat CPU  0 instructions:  319000003 cycles:  375437013 heartbeat IPC: 0.51610 cumulative IPC: 0.70105 (Simulation time: 0 hr 10 min 58 sec) 
Heartbeat CPU  0 instructions:  320000000 cycles:  377369599 heartbeat IPC: 0.51744 cumulative IPC: 0.69992 (Simulation time: 0 hr 11 min 1 sec) 
Heartbeat CPU  0 instructions:  321000003 cycles:  379293774 heartbeat IPC: 0.51970 cumulative IPC: 0.69883 (Simulation time: 0 hr 11 min 5 sec) 
Heartbeat CPU  0 instructions:  322000003 cycles:  381223942 heartbeat IPC: 0.51809 cumulative IPC: 0.69773 (Simulation time: 0 hr 11 min 9 sec) 
Heartbeat CPU  0 instructions:  323000003 cycles:  383180566 heartbeat IPC: 0.51108 cumulative IPC: 0.69659 (Simulation time: 0 hr 11 min 12 sec) 
Heartbeat CPU  0 instructions:  324000000 cycles:  385113439 heartbeat IPC: 0.51736 cumulative IPC: 0.69551 (Simulation time: 0 hr 11 min 16 sec) 
Heartbeat CPU  0 instructions:  325000002 cycles:  386792206 heartbeat IPC: 0.59568 cumulative IPC: 0.69499 (Simulation time: 0 hr 11 min 18 sec) 
Heartbeat CPU  0 instructions:  326000001 cycles:  388196731 heartbeat IPC: 0.71198 cumulative IPC: 0.69507 (Simulation time: 0 hr 11 min 21 sec) 
Heartbeat CPU  0 instructions:  327000000 cycles:  389615782 heartbeat IPC: 0.70470 cumulative IPC: 0.69511 (Simulation time: 0 hr 11 min 23 sec) 
Heartbeat CPU  0 instructions:  328000000 cycles:  391011481 heartbeat IPC: 0.71649 cumulative IPC: 0.69520 (Simulation time: 0 hr 11 min 25 sec) 
Heartbeat CPU  0 instructions:  329000001 cycles:  392422966 heartbeat IPC: 0.70847 cumulative IPC: 0.69526 (Simulation time: 0 hr 11 min 27 sec) 
Heartbeat CPU  0 instructions:  330000001 cycles:  393840383 heartbeat IPC: 0.70551 cumulative IPC: 0.69530 (Simulation time: 0 hr 11 min 29 sec) 
Heartbeat CPU  0 instructions:  331000001 cycles:  395240393 heartbeat IPC: 0.71428 cumulative IPC: 0.69538 (Simulation time: 0 hr 11 min 32 sec) 
Heartbeat CPU  0 instructions:  332000000 cycles:  396666304 heartbeat IPC: 0.70131 cumulative IPC: 0.69541 (Simulation time: 0 hr 11 min 34 sec) 
Heartbeat CPU  0 instructions:  333000000 cycles:  398051765 heartbeat IPC: 0.72178 cumulative IPC: 0.69552 (Simulation time: 0 hr 11 min 36 sec) 
Heartbeat CPU  0 instructions:  334000000 cycles:  399450070 heartbeat IPC: 0.71515 cumulative IPC: 0.69560 (Simulation time: 0 hr 11 min 38 sec) 
Heartbeat CPU  0 instructions:  335000003 cycles:  400865719 heartbeat IPC: 0.70639 cumulative IPC: 0.69564 (Simulation time: 0 hr 11 min 40 sec) 
Heartbeat CPU  0 instructions:  336000000 cycles:  402257483 heartbeat IPC: 0.71851 cumulative IPC: 0.69574 (Simulation time: 0 hr 11 min 42 sec) 
Heartbeat CPU  0 instructions:  337000003 cycles:  403647798 heartbeat IPC: 0.71926 cumulative IPC: 0.69583 (Simulation time: 0 hr 11 min 45 sec) 
Heartbeat CPU  0 instructions:  338000001 cycles:  405056584 heartbeat IPC: 0.70983 cumulative IPC: 0.69589 (Simulation time: 0 hr 11 min 47 sec) 
Heartbeat CPU  0 instructions:  339000000 cycles:  406459806 heartbeat IPC: 0.71264 cumulative IPC: 0.69596 (Simulation time: 0 hr 11 min 49 sec) 
Heartbeat CPU  0 instructions:  340000000 cycles:  407883146 heartbeat IPC: 0.70257 cumulative IPC: 0.69599 (Simulation time: 0 hr 11 min 51 sec) 
Heartbeat CPU  0 instructions:  341000002 cycles:  409300514 heartbeat IPC: 0.70553 cumulative IPC: 0.69603 (Simulation time: 0 hr 11 min 53 sec) 
Heartbeat CPU  0 instructions:  342000001 cycles:  410693699 heartbeat IPC: 0.71778 cumulative IPC: 0.69611 (Simulation time: 0 hr 11 min 56 sec) 
Heartbeat CPU  0 instructions:  343000001 cycles:  412119893 heartbeat IPC: 0.70117 cumulative IPC: 0.69613 (Simulation time: 0 hr 11 min 58 sec) 
Heartbeat CPU  0 instructions:  344000000 cycles:  413442697 heartbeat IPC: 0.75597 cumulative IPC: 0.69636 (Simulation time: 0 hr 12 min 0 sec) 
Heartbeat CPU  0 instructions:  345000002 cycles:  414547885 heartbeat IPC: 0.90483 cumulative IPC: 0.69701 (Simulation time: 0 hr 12 min 2 sec) 
Heartbeat CPU  0 instructions:  346000002 cycles:  415662027 heartbeat IPC: 0.89755 cumulative IPC: 0.69765 (Simulation time: 0 hr 12 min 4 sec) 
Heartbeat CPU  0 instructions:  347000002 cycles:  416783886 heartbeat IPC: 0.89138 cumulative IPC: 0.69826 (Simulation time: 0 hr 12 min 6 sec) 
Heartbeat CPU  0 instructions:  348000000 cycles:  417901943 heartbeat IPC: 0.89441 cumulative IPC: 0.69888 (Simulation time: 0 hr 12 min 9 sec) 
Heartbeat CPU  0 instructions:  349000002 cycles:  419020074 heartbeat IPC: 0.89435 cumulative IPC: 0.69949 (Simulation time: 0 hr 12 min 11 sec) 
Heartbeat CPU  0 instructions:  350000002 cycles:  420134583 heartbeat IPC: 0.89726 cumulative IPC: 0.70011 (Simulation time: 0 hr 12 min 13 sec) 
Heartbeat CPU  0 instructions:  351000002 cycles:  421244044 heartbeat IPC: 0.90134 cumulative IPC: 0.70073 (Simulation time: 0 hr 12 min 15 sec) 
Heartbeat CPU  0 instructions:  352000000 cycles:  422361404 heartbeat IPC: 0.89496 cumulative IPC: 0.70134 (Simulation time: 0 hr 12 min 17 sec) 
Heartbeat CPU  0 instructions:  353000001 cycles:  423486769 heartbeat IPC: 0.88860 cumulative IPC: 0.70192 (Simulation time: 0 hr 12 min 19 sec) 
Heartbeat CPU  0 instructions:  354000000 cycles:  424602163 heartbeat IPC: 0.89654 cumulative IPC: 0.70252 (Simulation time: 0 hr 12 min 22 sec) 
Heartbeat CPU  0 instructions:  355000003 cycles:  425712159 heartbeat IPC: 0.90091 cumulative IPC: 0.70313 (Simulation time: 0 hr 12 min 24 sec) 
Heartbeat CPU  0 instructions:  356000000 cycles:  426826392 heartbeat IPC: 0.89748 cumulative IPC: 0.70373 (Simulation time: 0 hr 12 min 26 sec) 
Heartbeat CPU  0 instructions:  357000001 cycles:  427942385 heartbeat IPC: 0.89606 cumulative IPC: 0.70431 (Simulation time: 0 hr 12 min 28 sec) 
Heartbeat CPU  0 instructions:  358000000 cycles:  429053667 heartbeat IPC: 0.89986 cumulative IPC: 0.70491 (Simulation time: 0 hr 12 min 30 sec) 
Heartbeat CPU  0 instructions:  359000003 cycles:  430171521 heartbeat IPC: 0.89457 cumulative IPC: 0.70549 (Simulation time: 0 hr 12 min 32 sec) 
Heartbeat CPU  0 instructions:  360000000 cycles:  431288648 heartbeat IPC: 0.89515 cumulative IPC: 0.70606 (Simulation time: 0 hr 12 min 35 sec) 
Heartbeat CPU  0 instructions:  361000001 cycles:  432398026 heartbeat IPC: 0.90141 cumulative IPC: 0.70665 (Simulation time: 0 hr 12 min 37 sec) 
Heartbeat CPU  0 instructions:  362000000 cycles:  433513995 heartbeat IPC: 0.89608 cumulative IPC: 0.70722 (Simulation time: 0 hr 12 min 39 sec) 
Heartbeat CPU  0 instructions:  363000002 cycles:  434635927 heartbeat IPC: 0.89132 cumulative IPC: 0.70777 (Simulation time: 0 hr 12 min 41 sec) 
Heartbeat CPU  0 instructions:  364000000 cycles:  435753534 heartbeat IPC: 0.89477 cumulative IPC: 0.70834 (Simulation time: 0 hr 12 min 43 sec) 
Heartbeat CPU  0 instructions:  365000000 cycles:  436865835 heartbeat IPC: 0.89904 cumulative IPC: 0.70890 (Simulation time: 0 hr 12 min 45 sec) 
Heartbeat CPU  0 instructions:  366000003 cycles:  437986381 heartbeat IPC: 0.89242 cumulative IPC: 0.70945 (Simulation time: 0 hr 12 min 48 sec) 
Heartbeat CPU  0 instructions:  367000002 cycles:  439098478 heartbeat IPC: 0.89920 cumulative IPC: 0.71001 (Simulation time: 0 hr 12 min 50 sec) 
Heartbeat CPU  0 instructions:  368000000 cycles:  440953867 heartbeat IPC: 0.53897 cumulative IPC: 0.70917 (Simulation time: 0 hr 12 min 53 sec) 
Heartbeat CPU  0 instructions:  369000002 cycles:  442925601 heartbeat IPC: 0.50717 cumulative IPC: 0.70812 (Simulation time: 0 hr 12 min 57 sec) 
Heartbeat CPU  0 instructions:  370000002 cycles:  444939613 heartbeat IPC: 0.49652 cumulative IPC: 0.70701 (Simulation time: 0 hr 13 min 0 sec) 
Heartbeat CPU  0 instructions:  371000002 cycles:  446852620 heartbeat IPC: 0.52274 cumulative IPC: 0.70609 (Simulation time: 0 hr 13 min 4 sec) 
Heartbeat CPU  0 instructions:  372000000 cycles:  448806434 heartbeat IPC: 0.51182 cumulative IPC: 0.70511 (Simulation time: 0 hr 13 min 7 sec) 
Heartbeat CPU  0 instructions:  373000002 cycles:  450762441 heartbeat IPC: 0.51125 cumulative IPC: 0.70413 (Simulation time: 0 hr 13 min 11 sec) 
Heartbeat CPU  0 instructions:  374000002 cycles:  452740629 heartbeat IPC: 0.50551 cumulative IPC: 0.70312 (Simulation time: 0 hr 13 min 14 sec) 
Heartbeat CPU  0 instructions:  375000002 cycles:  454742679 heartbeat IPC: 0.49949 cumulative IPC: 0.70208 (Simulation time: 0 hr 13 min 18 sec) 
Heartbeat CPU  0 instructions:  376000000 cycles:  456677414 heartbeat IPC: 0.51687 cumulative IPC: 0.70117 (Simulation time: 0 hr 13 min 21 sec) 
Heartbeat CPU  0 instructions:  377000002 cycles:  458656508 heartbeat IPC: 0.50528 cumulative IPC: 0.70019 (Simulation time: 0 hr 13 min 24 sec) 
Heartbeat CPU  0 instructions:  378000002 cycles:  460631997 heartbeat IPC: 0.50620 cumulative IPC: 0.69922 (Simulation time: 0 hr 13 min 28 sec) 
Heartbeat CPU  0 instructions:  379000002 cycles:  462632009 heartbeat IPC: 0.50000 cumulative IPC: 0.69823 (Simulation time: 0 hr 13 min 31 sec) 
Heartbeat CPU  0 instructions:  380000000 cycles:  464573751 heartbeat IPC: 0.51500 cumulative IPC: 0.69734 (Simulation time: 0 hr 13 min 35 sec) 
Heartbeat CPU  0 instructions:  381000002 cycles:  466535373 heartbeat IPC: 0.50978 cumulative IPC: 0.69643 (Simulation time: 0 hr 13 min 38 sec) 
Heartbeat CPU  0 instructions:  382000003 cycles:  468549824 heartbeat IPC: 0.49641 cumulative IPC: 0.69544 (Simulation time: 0 hr 13 min 42 sec) 
Heartbeat CPU  0 instructions:  383000002 cycles:  470420500 heartbeat IPC: 0.53457 cumulative IPC: 0.69470 (Simulation time: 0 hr 13 min 44 sec) 
Heartbeat CPU  0 instructions:  384000000 cycles:  472308037 heartbeat IPC: 0.52979 cumulative IPC: 0.69394 (Simulation time: 0 hr 13 min 46 sec) 
Heartbeat CPU  0 instructions:  385000001 cycles:  474160654 heartbeat IPC: 0.53978 cumulative IPC: 0.69324 (Simulation time: 0 hr 13 min 48 sec) 
Heartbeat CPU  0 instructions:  386000001 cycles:  476080521 heartbeat IPC: 0.52087 cumulative IPC: 0.69244 (Simulation time: 0 hr 13 min 51 sec) 
Heartbeat CPU  0 instructions:  387000000 cycles:  477948740 heartbeat IPC: 0.53527 cumulative IPC: 0.69173 (Simulation time: 0 hr 13 min 53 sec) 
Heartbeat CPU  0 instructions:  388000000 cycles:  479810092 heartbeat IPC: 0.53724 cumulative IPC: 0.69104 (Simulation time: 0 hr 13 min 56 sec) 
Heartbeat CPU  0 instructions:  389000000 cycles:  481720781 heartbeat IPC: 0.52337 cumulative IPC: 0.69028 (Simulation time: 0 hr 13 min 58 sec) 
Heartbeat CPU  0 instructions:  390000003 cycles:  483559063 heartbeat IPC: 0.54399 cumulative IPC: 0.68964 (Simulation time: 0 hr 14 min 0 sec) 
Heartbeat CPU  0 instructions:  391000003 cycles:  485421030 heartbeat IPC: 0.53707 cumulative IPC: 0.68897 (Simulation time: 0 hr 14 min 2 sec) 
Heartbeat CPU  0 instructions:  392000000 cycles:  487298489 heartbeat IPC: 0.53263 cumulative IPC: 0.68827 (Simulation time: 0 hr 14 min 5 sec) 
Heartbeat CPU  0 instructions:  393000002 cycles:  489176865 heartbeat IPC: 0.53238 cumulative IPC: 0.68759 (Simulation time: 0 hr 14 min 7 sec) 
Heartbeat CPU  0 instructions:  394000000 cycles:  491025156 heartbeat IPC: 0.54104 cumulative IPC: 0.68695 (Simulation time: 0 hr 14 min 9 sec) 
Heartbeat CPU  0 instructions:  395000002 cycles:  492887037 heartbeat IPC: 0.53709 cumulative IPC: 0.68630 (Simulation time: 0 hr 14 min 11 sec) 
Heartbeat CPU  0 instructions:  396000000 cycles:  494764021 heartbeat IPC: 0.53277 cumulative IPC: 0.68564 (Simulation time: 0 hr 14 min 14 sec) 
Heartbeat CPU  0 instructions:  397000003 cycles:  496644345 heartbeat IPC: 0.53182 cumulative IPC: 0.68497 (Simulation time: 0 hr 14 min 16 sec) 
Heartbeat CPU  0 instructions:  398000000 cycles:  498575745 heartbeat IPC: 0.51776 cumulative IPC: 0.68423 (Simulation time: 0 hr 14 min 18 sec) 
Heartbeat CPU  0 instructions:  399000002 cycles:  500454353 heartbeat IPC: 0.53231 cumulative IPC: 0.68358 (Simulation time: 0 hr 14 min 20 sec) 
Heartbeat CPU  0 instructions:  400000000 cycles:  502316980 heartbeat IPC: 0.53688 cumulative IPC: 0.68295 (Simulation time: 0 hr 14 min 23 sec) 
Heartbeat CPU  0 instructions:  401000000 cycles:  504201399 heartbeat IPC: 0.53067 cumulative IPC: 0.68230 (Simulation time: 0 hr 14 min 25 sec) 
Heartbeat CPU  0 instructions:  402000003 cycles:  505552128 heartbeat IPC: 0.74034 cumulative IPC: 0.68248 (Simulation time: 0 hr 14 min 27 sec) 
Heartbeat CPU  0 instructions:  403000002 cycles:  506510491 heartbeat IPC: 1.04344 cumulative IPC: 0.68326 (Simulation time: 0 hr 14 min 29 sec) 
Heartbeat CPU  0 instructions:  404000000 cycles:  507484396 heartbeat IPC: 1.02679 cumulative IPC: 0.68401 (Simulation time: 0 hr 14 min 32 sec) 
Heartbeat CPU  0 instructions:  405000000 cycles:  508440774 heartbeat IPC: 1.04561 cumulative IPC: 0.68479 (Simulation time: 0 hr 14 min 34 sec) 
Heartbeat CPU  0 instructions:  406000002 cycles:  509379486 heartbeat IPC: 1.06529 cumulative IPC: 0.68559 (Simulation time: 0 hr 14 min 36 sec) 
Heartbeat CPU  0 instructions:  407000003 cycles:  510318942 heartbeat IPC: 1.06445 cumulative IPC: 0.68639 (Simulation time: 0 hr 14 min 38 sec) 
Heartbeat CPU  0 instructions:  408000000 cycles:  511255885 heartbeat IPC: 1.06730 cumulative IPC: 0.68718 (Simulation time: 0 hr 14 min 40 sec) 
Heartbeat CPU  0 instructions:  409000001 cycles:  512193499 heartbeat IPC: 1.06654 cumulative IPC: 0.68797 (Simulation time: 0 hr 14 min 42 sec) 
Heartbeat CPU  0 instructions:  410000000 cycles:  513136946 heartbeat IPC: 1.05994 cumulative IPC: 0.68875 (Simulation time: 0 hr 14 min 44 sec) 
Heartbeat CPU  0 instructions:  411000002 cycles:  514071732 heartbeat IPC: 1.06977 cumulative IPC: 0.68954 (Simulation time: 0 hr 14 min 47 sec) 
Heartbeat CPU  0 instructions:  412000000 cycles:  515009175 heartbeat IPC: 1.06673 cumulative IPC: 0.69033 (Simulation time: 0 hr 14 min 49 sec) 
Heartbeat CPU  0 instructions:  413000002 cycles:  515946897 heartbeat IPC: 1.06642 cumulative IPC: 0.69110 (Simulation time: 0 hr 14 min 51 sec) 
Heartbeat CPU  0 instructions:  414000001 cycles:  516882943 heartbeat IPC: 1.06832 cumulative IPC: 0.69188 (Simulation time: 0 hr 14 min 53 sec) 
Heartbeat CPU  0 instructions:  415000003 cycles:  517819811 heartbeat IPC: 1.06739 cumulative IPC: 0.69266 (Simulation time: 0 hr 14 min 55 sec) 
Heartbeat CPU  0 instructions:  416000000 cycles:  518758728 heartbeat IPC: 1.06505 cumulative IPC: 0.69342 (Simulation time: 0 hr 14 min 57 sec) 
Heartbeat CPU  0 instructions:  417000003 cycles:  519693809 heartbeat IPC: 1.06943 cumulative IPC: 0.69419 (Simulation time: 0 hr 15 min 0 sec) 
Heartbeat CPU  0 instructions:  418000000 cycles:  520632137 heartbeat IPC: 1.06572 cumulative IPC: 0.69496 (Simulation time: 0 hr 15 min 2 sec) 
Heartbeat CPU  0 instructions:  419000000 cycles:  521569513 heartbeat IPC: 1.06681 cumulative IPC: 0.69572 (Simulation time: 0 hr 15 min 4 sec) 
Heartbeat CPU  0 instructions:  420000000 cycles:  522506551 heartbeat IPC: 1.06719 cumulative IPC: 0.69647 (Simulation time: 0 hr 15 min 6 sec) 
Heartbeat CPU  0 instructions:  421000003 cycles:  523444869 heartbeat IPC: 1.06574 cumulative IPC: 0.69723 (Simulation time: 0 hr 15 min 9 sec) 
Heartbeat CPU  0 instructions:  422000000 cycles:  524380653 heartbeat IPC: 1.06862 cumulative IPC: 0.69798 (Simulation time: 0 hr 15 min 11 sec) 
Heartbeat CPU  0 instructions:  423000000 cycles:  525318110 heartbeat IPC: 1.06672 cumulative IPC: 0.69873 (Simulation time: 0 hr 15 min 13 sec) 
Heartbeat CPU  0 instructions:  424000000 cycles:  526254932 heartbeat IPC: 1.06744 cumulative IPC: 0.69947 (Simulation time: 0 hr 15 min 15 sec) 
Heartbeat CPU  0 instructions:  425000000 cycles:  527252744 heartbeat IPC: 1.00219 cumulative IPC: 0.70012 (Simulation time: 0 hr 15 min 17 sec) 
Heartbeat CPU  0 instructions:  426000000 cycles:  528380940 heartbeat IPC: 0.88637 cumulative IPC: 0.70057 (Simulation time: 0 hr 15 min 20 sec) 
Heartbeat CPU  0 instructions:  427000002 cycles:  529510181 heartbeat IPC: 0.88555 cumulative IPC: 0.70102 (Simulation time: 0 hr 15 min 22 sec) 
Heartbeat CPU  0 instructions:  428000000 cycles:  530638869 heartbeat IPC: 0.88598 cumulative IPC: 0.70147 (Simulation time: 0 hr 15 min 24 sec) 
Heartbeat CPU  0 instructions:  429000002 cycles:  531761554 heartbeat IPC: 0.89072 cumulative IPC: 0.70192 (Simulation time: 0 hr 15 min 26 sec) 
Heartbeat CPU  0 instructions:  430000000 cycles:  532884053 heartbeat IPC: 0.89087 cumulative IPC: 0.70237 (Simulation time: 0 hr 15 min 28 sec) 
Heartbeat CPU  0 instructions:  431000001 cycles:  534003269 heartbeat IPC: 0.89348 cumulative IPC: 0.70283 (Simulation time: 0 hr 15 min 31 sec) 
Heartbeat CPU  0 instructions:  432000000 cycles:  535119193 heartbeat IPC: 0.89612 cumulative IPC: 0.70328 (Simulation time: 0 hr 15 min 33 sec) 
Heartbeat CPU  0 instructions:  433000000 cycles:  536243327 heartbeat IPC: 0.88957 cumulative IPC: 0.70373 (Simulation time: 0 hr 15 min 35 sec) 
Heartbeat CPU  0 instructions:  434000000 cycles:  537364837 heartbeat IPC: 0.89166 cumulative IPC: 0.70417 (Simulation time: 0 hr 15 min 37 sec) 
Heartbeat CPU  0 instructions:  435000000 cycles:  538484577 heartbeat IPC: 0.89306 cumulative IPC: 0.70462 (Simulation time: 0 hr 15 min 39 sec) 
Heartbeat CPU  0 instructions:  436000000 cycles:  539601643 heartbeat IPC: 0.89520 cumulative IPC: 0.70506 (Simulation time: 0 hr 15 min 41 sec) 
Heartbeat CPU  0 instructions:  437000002 cycles:  540721403 heartbeat IPC: 0.89305 cumulative IPC: 0.70550 (Simulation time: 0 hr 15 min 43 sec) 
Heartbeat CPU  0 instructions:  438000001 cycles:  541843412 heartbeat IPC: 0.89126 cumulative IPC: 0.70594 (Simulation time: 0 hr 15 min 46 sec) 
Heartbeat CPU  0 instructions:  439000000 cycles:  542959689 heartbeat IPC: 0.89583 cumulative IPC: 0.70638 (Simulation time: 0 hr 15 min 48 sec) 
Heartbeat CPU  0 instructions:  440000000 cycles:  544081646 heartbeat IPC: 0.89130 cumulative IPC: 0.70681 (Simulation time: 0 hr 15 min 50 sec) 
Heartbeat CPU  0 instructions:  441000001 cycles:  545202338 heartbeat IPC: 0.89231 cumulative IPC: 0.70724 (Simulation time: 0 hr 15 min 52 sec) 
Heartbeat CPU  0 instructions:  442000000 cycles:  546319790 heartbeat IPC: 0.89489 cumulative IPC: 0.70768 (Simulation time: 0 hr 15 min 54 sec) 
Heartbeat CPU  0 instructions:  443000003 cycles:  547441828 heartbeat IPC: 0.89124 cumulative IPC: 0.70810 (Simulation time: 0 hr 15 min 56 sec) 
Heartbeat CPU  0 instructions:  444000000 cycles:  548568169 heartbeat IPC: 0.88783 cumulative IPC: 0.70852 (Simulation time: 0 hr 15 min 58 sec) 
Heartbeat CPU  0 instructions:  445000001 cycles:  549689950 heartbeat IPC: 0.89144 cumulative IPC: 0.70894 (Simulation time: 0 hr 16 min 1 sec) 
Heartbeat CPU  0 instructions:  446000000 cycles:  550807338 heartbeat IPC: 0.89494 cumulative IPC: 0.70937 (Simulation time: 0 hr 16 min 3 sec) 
Heartbeat CPU  0 instructions:  447000003 cycles:  551932541 heartbeat IPC: 0.88873 cumulative IPC: 0.70978 (Simulation time: 0 hr 16 min 5 sec) 
Heartbeat CPU  0 instructions:  448000000 cycles:  553052939 heartbeat IPC: 0.89254 cumulative IPC: 0.71020 (Simulation time: 0 hr 16 min 7 sec) 
Heartbeat CPU  0 instructions:  449000001 cycles:  553946588 heartbeat IPC: 1.11901 cumulative IPC: 0.71094 (Simulation time: 0 hr 16 min 10 sec) 
Heartbeat CPU  0 instructions:  450000000 cycles:  554836332 heartbeat IPC: 1.12392 cumulative IPC: 0.71169 (Simulation time: 0 hr 16 min 12 sec) 
Heartbeat CPU  0 instructions:  451000003 cycles:  555727840 heartbeat IPC: 1.12170 cumulative IPC: 0.71243 (Simulation time: 0 hr 16 min 14 sec) 
Heartbeat CPU  0 instructions:  452000000 cycles:  556618294 heartbeat IPC: 1.12302 cumulative IPC: 0.71317 (Simulation time: 0 hr 16 min 16 sec) 
Heartbeat CPU  0 instructions:  453000001 cycles:  557510680 heartbeat IPC: 1.12059 cumulative IPC: 0.71391 (Simulation time: 0 hr 16 min 18 sec) 
Heartbeat CPU  0 instructions:  454000000 cycles:  558401516 heartbeat IPC: 1.12254 cumulative IPC: 0.71464 (Simulation time: 0 hr 16 min 20 sec) 
Heartbeat CPU  0 instructions:  455000003 cycles:  559291443 heartbeat IPC: 1.12369 cumulative IPC: 0.71538 (Simulation time: 0 hr 16 min 22 sec) 
Heartbeat CPU  0 instructions:  456000000 cycles:  560182656 heartbeat IPC: 1.12206 cumulative IPC: 0.71610 (Simulation time: 0 hr 16 min 24 sec) 
Heartbeat CPU  0 instructions:  457000001 cycles:  561074484 heartbeat IPC: 1.12129 cumulative IPC: 0.71683 (Simulation time: 0 hr 16 min 27 sec) 
Heartbeat CPU  0 instructions:  458000000 cycles:  561966565 heartbeat IPC: 1.12097 cumulative IPC: 0.71755 (Simulation time: 0 hr 16 min 29 sec) 
Heartbeat CPU  0 instructions:  459000002 cycles:  562856334 heartbeat IPC: 1.12389 cumulative IPC: 0.71828 (Simulation time: 0 hr 16 min 31 sec) 
Heartbeat CPU  0 instructions:  460000000 cycles:  563747223 heartbeat IPC: 1.12247 cumulative IPC: 0.71900 (Simulation time: 0 hr 16 min 33 sec) 
Heartbeat CPU  0 instructions:  461000000 cycles:  564640344 heartbeat IPC: 1.11967 cumulative IPC: 0.71971 (Simulation time: 0 hr 16 min 35 sec) 
Heartbeat CPU  0 instructions:  462000002 cycles:  565531293 heartbeat IPC: 1.12240 cumulative IPC: 0.72042 (Simulation time: 0 hr 16 min 37 sec) 
Heartbeat CPU  0 instructions:  463000001 cycles:  566422369 heartbeat IPC: 1.12224 cumulative IPC: 0.72113 (Simulation time: 0 hr 16 min 39 sec) 
Heartbeat CPU  0 instructions:  464000000 cycles:  567315161 heartbeat IPC: 1.12008 cumulative IPC: 0.72184 (Simulation time: 0 hr 16 min 42 sec) 
Heartbeat CPU  0 instructions:  465000003 cycles:  568206795 heartbeat IPC: 1.12154 cumulative IPC: 0.72255 (Simulation time: 0 hr 16 min 44 sec) 
Heartbeat CPU  0 instructions:  466000000 cycles:  569098984 heartbeat IPC: 1.12084 cumulative IPC: 0.72325 (Simulation time: 0 hr 16 min 46 sec) 
Heartbeat CPU  0 instructions:  467000000 cycles:  569991480 heartbeat IPC: 1.12045 cumulative IPC: 0.72395 (Simulation time: 0 hr 16 min 48 sec) 
Heartbeat CPU  0 instructions:  468000000 cycles:  570883670 heartbeat IPC: 1.12084 cumulative IPC: 0.72464 (Simulation time: 0 hr 16 min 50 sec) 
Heartbeat CPU  0 instructions:  469000002 cycles:  571776251 heartbeat IPC: 1.12035 cumulative IPC: 0.72534 (Simulation time: 0 hr 16 min 52 sec) 
Heartbeat CPU  0 instructions:  470000001 cycles:  572666363 heartbeat IPC: 1.12345 cumulative IPC: 0.72603 (Simulation time: 0 hr 16 min 54 sec) 
Heartbeat CPU  0 instructions:  471000003 cycles:  573558434 heartbeat IPC: 1.12099 cumulative IPC: 0.72672 (Simulation time: 0 hr 16 min 56 sec) 
Heartbeat CPU  0 instructions:  472000000 cycles:  574655686 heartbeat IPC: 0.91136 cumulative IPC: 0.72712 (Simulation time: 0 hr 16 min 59 sec) 
Heartbeat CPU  0 instructions:  473000000 cycles:  575777861 heartbeat IPC: 0.89113 cumulative IPC: 0.72748 (Simulation time: 0 hr 17 min 1 sec) 
Heartbeat CPU  0 instructions:  474000001 cycles:  576916580 heartbeat IPC: 0.87818 cumulative IPC: 0.72781 (Simulation time: 0 hr 17 min 3 sec) 
Heartbeat CPU  0 instructions:  475000002 cycles:  578042728 heartbeat IPC: 0.88798 cumulative IPC: 0.72816 (Simulation time: 0 hr 17 min 5 sec) 
Heartbeat CPU  0 instructions:  476000000 cycles:  579165294 heartbeat IPC: 0.89081 cumulative IPC: 0.72852 (Simulation time: 0 hr 17 min 7 sec) 
Heartbeat CPU  0 instructions:  477000000 cycles:  580288032 heartbeat IPC: 0.89068 cumulative IPC: 0.72887 (Simulation time: 0 hr 17 min 10 sec) 
Heartbeat CPU  0 instructions:  478000002 cycles:  581402717 heartbeat IPC: 0.89712 cumulative IPC: 0.72923 (Simulation time: 0 hr 17 min 12 sec) 
Heartbeat CPU  0 instructions:  479000002 cycles:  582516166 heartbeat IPC: 0.89811 cumulative IPC: 0.72959 (Simulation time: 0 hr 17 min 14 sec) 
Heartbeat CPU  0 instructions:  480000000 cycles:  583645766 heartbeat IPC: 0.88527 cumulative IPC: 0.72993 (Simulation time: 0 hr 17 min 16 sec) 
Heartbeat CPU  0 instructions:  481000003 cycles:  584757938 heartbeat IPC: 0.89914 cumulative IPC: 0.73029 (Simulation time: 0 hr 17 min 18 sec) 
Heartbeat CPU  0 instructions:  482000000 cycles:  585874163 heartbeat IPC: 0.89587 cumulative IPC: 0.73065 (Simulation time: 0 hr 17 min 20 sec) 
Heartbeat CPU  0 instructions:  483000001 cycles:  586989180 heartbeat IPC: 0.89685 cumulative IPC: 0.73100 (Simulation time: 0 hr 17 min 22 sec) 
Heartbeat CPU  0 instructions:  484000000 cycles:  588102875 heartbeat IPC: 0.89791 cumulative IPC: 0.73135 (Simulation time: 0 hr 17 min 24 sec) 
Heartbeat CPU  0 instructions:  485000003 cycles:  589218298 heartbeat IPC: 0.89652 cumulative IPC: 0.73170 (Simulation time: 0 hr 17 min 27 sec) 
Heartbeat CPU  0 instructions:  486000000 cycles:  590335126 heartbeat IPC: 0.89539 cumulative IPC: 0.73205 (Simulation time: 0 hr 17 min 29 sec) 
Heartbeat CPU  0 instructions:  487000000 cycles:  591447970 heartbeat IPC: 0.89860 cumulative IPC: 0.73240 (Simulation time: 0 hr 17 min 31 sec) 
Heartbeat CPU  0 instructions:  488000000 cycles:  592567642 heartbeat IPC: 0.89312 cumulative IPC: 0.73274 (Simulation time: 0 hr 17 min 33 sec) 
Heartbeat CPU  0 instructions:  489000003 cycles:  593685600 heartbeat IPC: 0.89449 cumulative IPC: 0.73308 (Simulation time: 0 hr 17 min 35 sec) 
Heartbeat CPU  0 instructions:  490000002 cycles:  594808774 heartbeat IPC: 0.89033 cumulative IPC: 0.73341 (Simulation time: 0 hr 17 min 37 sec) 
Heartbeat CPU  0 instructions:  491000001 cycles:  595931129 heartbeat IPC: 0.89098 cumulative IPC: 0.73375 (Simulation time: 0 hr 17 min 39 sec) 
Heartbeat CPU  0 instructions:  492000000 cycles:  597045912 heartbeat IPC: 0.89703 cumulative IPC: 0.73409 (Simulation time: 0 hr 17 min 41 sec) 
Heartbeat CPU  0 instructions:  493000003 cycles:  598163029 heartbeat IPC: 0.89516 cumulative IPC: 0.73442 (Simulation time: 0 hr 17 min 43 sec) 
Heartbeat CPU  0 instructions:  494000002 cycles:  599285424 heartbeat IPC: 0.89095 cumulative IPC: 0.73475 (Simulation time: 0 hr 17 min 46 sec) 
Heartbeat CPU  0 instructions:  495000002 cycles:  600384549 heartbeat IPC: 0.90981 cumulative IPC: 0.73511 (Simulation time: 0 hr 17 min 48 sec) 
Heartbeat CPU  0 instructions:  496000000 cycles:  601450903 heartbeat IPC: 0.93777 cumulative IPC: 0.73551 (Simulation time: 0 hr 17 min 50 sec) 
Heartbeat CPU  0 instructions:  497000000 cycles:  602525229 heartbeat IPC: 0.93082 cumulative IPC: 0.73590 (Simulation time: 0 hr 17 min 52 sec) 
Heartbeat CPU  0 instructions:  498000002 cycles:  603591243 heartbeat IPC: 0.93808 cumulative IPC: 0.73630 (Simulation time: 0 hr 17 min 54 sec) 
Heartbeat CPU  0 instructions:  499000001 cycles:  604659173 heartbeat IPC: 0.93639 cumulative IPC: 0.73669 (Simulation time: 0 hr 17 min 56 sec) 
Heartbeat CPU  0 instructions:  500000000 cycles:  605730100 heartbeat IPC: 0.93377 cumulative IPC: 0.73708 (Simulation time: 0 hr 17 min 58 sec) 
Heartbeat CPU  0 instructions:  501000003 cycles:  606795932 heartbeat IPC: 0.93824 cumulative IPC: 0.73747 (Simulation time: 0 hr 18 min 0 sec) 
Heartbeat CPU  0 instructions:  502000002 cycles:  607861632 heartbeat IPC: 0.93835 cumulative IPC: 0.73787 (Simulation time: 0 hr 18 min 2 sec) 
Heartbeat CPU  0 instructions:  503000001 cycles:  608935788 heartbeat IPC: 0.93096 cumulative IPC: 0.73825 (Simulation time: 0 hr 18 min 4 sec) 
Heartbeat CPU  0 instructions:  504000000 cycles:  610003931 heartbeat IPC: 0.93620 cumulative IPC: 0.73863 (Simulation time: 0 hr 18 min 7 sec) 
Heartbeat CPU  0 instructions:  505000003 cycles:  611070661 heartbeat IPC: 0.93745 cumulative IPC: 0.73902 (Simulation time: 0 hr 18 min 9 sec) 
Heartbeat CPU  0 instructions:  506000002 cycles:  612136030 heartbeat IPC: 0.93864 cumulative IPC: 0.73941 (Simulation time: 0 hr 18 min 11 sec) 
Heartbeat CPU  0 instructions:  507000001 cycles:  613200982 heartbeat IPC: 0.93901 cumulative IPC: 0.73980 (Simulation time: 0 hr 18 min 13 sec) 
Heartbeat CPU  0 instructions:  508000000 cycles:  614266915 heartbeat IPC: 0.93814 cumulative IPC: 0.74018 (Simulation time: 0 hr 18 min 15 sec) 
Heartbeat CPU  0 instructions:  509000002 cycles:  615330396 heartbeat IPC: 0.94031 cumulative IPC: 0.74056 (Simulation time: 0 hr 18 min 17 sec) 
Heartbeat CPU  0 instructions:  510000001 cycles:  616398973 heartbeat IPC: 0.93582 cumulative IPC: 0.74094 (Simulation time: 0 hr 18 min 19 sec) 
Heartbeat CPU  0 instructions:  511000001 cycles:  617466472 heartbeat IPC: 0.93677 cumulative IPC: 0.74132 (Simulation time: 0 hr 18 min 21 sec) 
Heartbeat CPU  0 instructions:  512000000 cycles:  618529396 heartbeat IPC: 0.94080 cumulative IPC: 0.74170 (Simulation time: 0 hr 18 min 24 sec) 
Heartbeat CPU  0 instructions:  513000001 cycles:  619596823 heartbeat IPC: 0.93683 cumulative IPC: 0.74207 (Simulation time: 0 hr 18 min 26 sec) 
Heartbeat CPU  0 instructions:  514000003 cycles:  620667739 heartbeat IPC: 0.93378 cumulative IPC: 0.74244 (Simulation time: 0 hr 18 min 28 sec) 
Heartbeat CPU  0 instructions:  515000003 cycles:  621732658 heartbeat IPC: 0.93904 cumulative IPC: 0.74282 (Simulation time: 0 hr 18 min 30 sec) 
Heartbeat CPU  0 instructions:  516000000 cycles:  622797567 heartbeat IPC: 0.93904 cumulative IPC: 0.74319 (Simulation time: 0 hr 18 min 32 sec) 
Heartbeat CPU  0 instructions:  517000000 cycles:  623865744 heartbeat IPC: 0.93617 cumulative IPC: 0.74356 (Simulation time: 0 hr 18 min 34 sec) 
Heartbeat CPU  0 instructions:  518000001 cycles:  624940072 heartbeat IPC: 0.93082 cumulative IPC: 0.74392 (Simulation time: 0 hr 18 min 36 sec) 
Heartbeat CPU  0 instructions:  519000000 cycles:  626078341 heartbeat IPC: 0.87853 cumulative IPC: 0.74419 (Simulation time: 0 hr 18 min 38 sec) 
Heartbeat CPU  0 instructions:  520000000 cycles:  627204142 heartbeat IPC: 0.88826 cumulative IPC: 0.74448 (Simulation time: 0 hr 18 min 41 sec) 
Heartbeat CPU  0 instructions:  521000000 cycles:  628340375 heartbeat IPC: 0.88010 cumulative IPC: 0.74475 (Simulation time: 0 hr 18 min 43 sec) 
Heartbeat CPU  0 instructions:  522000002 cycles:  629455993 heartbeat IPC: 0.89637 cumulative IPC: 0.74505 (Simulation time: 0 hr 18 min 45 sec) 
Heartbeat CPU  0 instructions:  523000002 cycles:  630583519 heartbeat IPC: 0.88690 cumulative IPC: 0.74533 (Simulation time: 0 hr 18 min 47 sec) 
Heartbeat CPU  0 instructions:  524000000 cycles:  631702076 heartbeat IPC: 0.89401 cumulative IPC: 0.74562 (Simulation time: 0 hr 18 min 49 sec) 
Heartbeat CPU  0 instructions:  525000000 cycles:  632815889 heartbeat IPC: 0.89782 cumulative IPC: 0.74592 (Simulation time: 0 hr 18 min 51 sec) 
Heartbeat CPU  0 instructions:  526000001 cycles:  633937429 heartbeat IPC: 0.89163 cumulative IPC: 0.74620 (Simulation time: 0 hr 18 min 53 sec) 
Heartbeat CPU  0 instructions:  527000002 cycles:  635062164 heartbeat IPC: 0.88910 cumulative IPC: 0.74649 (Simulation time: 0 hr 18 min 56 sec) 
[...]
AAAAAAAAAAAAAAAAAAAAAAAAAAAAAAAAAAAAAAAAAAAAAAAAAAAAAAAAAAA22222
AAAAAAAAAAAAAAAAAAAAAAAAAAAAAAAAAAAAAAAAAAAAAAAAAAAAAAAAAAAA2222
AAAAAAAAAAAAAAAAAAAAAAAAAAAAAAAAAAAAAAAAAAAAAAAAAAAAAAAAAAAAA222
AAAAAAAAAAAAAAAAAAAAAAAAAAAAAAAAAAAAAAAAAAAAAAAAAAAAAAAAAAAAAA22
AAAAAAAAAAAAAAAAAAAAAAAAAAAAAAAAAAAAAAAAAAAAAAAAAAAAAAAAAAAAAAA2
AAAAAAAAAAAAAAAAAAAAAAAAAAAAAAAAAAAAAAAAAAAAAAAAAAAAAAAAAAAAAAAA
AAIAAAAAAAAAAAAAAAAAAAAAAAAAAAAAAAAAAAAAAAAAAAAAAAAAAAAAAAAAAAAA
AAIIAAAAAAAAAAAAAAAAAAAAAAAAAAAAAAAAAAAAAAAAAAAAAAAAAAAAAAAAAAAA
AAIIIAAAAAAAAAAAAAAAAAAAAAAAAAAAAAAAAAAAAAAAAAAAAAAAAAAAAAAAAAAA
AAIIIIAAAAAAAAAAAAAAAAAAAAAAAAAAAAAAAAAAAAAAAAAAAAAAAAAAAAAAAAAA
AAIIIIIAAAAAAAAAAAAAAAAAAAAAAAAAAAAAAAAAAAAAAAAAAAAAAAAAAAAAAAAA
AAIIIIIIAAAAAAAAAAAAAAAAAAAAAAAAAAAAAAAAAAAAAAAAAAAAAAAAAAAAAAAA
AAIIIIIIIAAAAAAAAAAAAAAAAAAAAAAAAAAAAAAAAAAAAAAAAAAAAAAAAAAAAAAA
AAIIIIIIIIAAAAAAAAAAAAAAAAAAAAAAAAAAAAAAAAAAAAAAAAAAAAAAAAAAAAAA
AAIIIIIIIIAIAAAAAAAAAAAAAAAAAAAAAAAAAAAAAAAAAAAAAAAAAAAAAAAAAAAA
AAIIIIIIIIAIIAAAAAAAAAAAAAAAAAAAAAAAAAAAAAAAAAAAAAAAAAAAAAAAAAAA
AAIIIIIIIIAIIIAAAAAAAAAAAAAAAAAAAAAAAAAAAAAAAAAAAAAAAAAAAAAAAAAA
AAIIIIIIIIAIIIIAAAAAAAAAAAAAAAAAAAAAAAAAAAAAAAAAAAAAAAAAAAAAAAAA
AAIIIIIIIIAIIIIIAAAAAAAAAAAAAAAAAAAAAAAAAAAAAAAAAAAAAAAAAAAAAAAA
AAIIIIIIIIAIIIIIIAAAAAAAAAAAAAAAAAAAAAAAAAAAAAAAAAAAAAAAAAAAAAAA
AAIIIIIIIIAIIIIIIIAAAAAAAAAAAAAAAAAAAAAAAAAAAAAAAAAAAAAAAAAAAAAA
AAIIIIIIIIAIIIIIIIIAAAAAAAAAAAAAAAAAAAAAAAAAAAAAAAAAAAAAAAAAAAAA
AAIIIIIIIIAIIIIIIIIIAAAAAAAAAAAAAAAAAAAAAAAAAAAAAAAAAAAAAAAAAAAA
AAIIIIIIIIAIIIIIIIIIAAAAAAAIAAAAAAAAAAAAAAAAAAAAAAAAAAAAAAAAAAAA
AAIIIIIIIIAIIIIIIIIIAAAAAAAIAAAAAAAIAAAAAAAAAAAAAAAAAAAAAAAAAAAA
AAIIIIIIIIAIIIIIIIIIAAAAAAAIAAAAAAAIAIAAAAAAAAAAAAAAAAAAAAAAAAAA
AAIIIIIIIIAIIIIIIIIIAAAAAAAIAAAAAAAIAIIAAAAAAAAAAAAAAAAAAAAAAAAA
AAIIIIIIIIAIIIIIIIIIAAAAAAAIAAAAAAAIAIIIAAAAAAAAAAAAAAAAAAAAAAAA
AAIIIIIIIIAIIIIIIIIIAAAAAAAIAAAAAAAIAIIIIAAAAAAAAAAAAAAAAAAAAAAA
AAIIIIIIIIAIIIIIIIIIAAAAAAAIAAAAAAIIAIIIIAAAAAAAAAAAAAAAAAAAAAAA
AAIIIIIIIIAIIIIIIIIIAAAAAAAIAAAAAAIIIIIIIAAAAAAAAAAAAAAAAAAAAAAA
AAIIIIIIIIAIIIIIIIIIAAAAAAAIAAAAAAIIIIIIIAAIAAAAAAAAAAAAAAAAAAAA
AAIIIIIIIIAIIIIIIIIIAAAAAAAIAAAAAAIIIIIIIAAIAAAIAAAAAAAAAAAAAAAA
AAIIIIIIIIAIIIIIIIIIAAAAAAAIAAAAAAIIIIIIIAAIAAAIIAAAAAAAAAAAAAAA
AAIIIIIIIIAIIIIIIIIIAAAAAAAIAAAAAAIIIIIIIAAIAAAIIIAAAAAAAAAAAAAA
AAIIIIIIIIAIIIIIIIIIAAAAAAAIAAAAAAIIIIIIIAIIAAAIIIAAAAAAAAAAAAAA
AAIIIIIIIIAIIIIIIIIIAAAAAAAIAAAAAAIIIIIIIAIIIAAIIIAAAAAAAAAAAAAA
AAIIIIIIIIAIIIIIIIIIAAAAAAAIAAAAAAIIIIIIIAIIIIAIIIAAAAAAAAAAAAAA
AAIIIIIIIIAIIIIIIIIIAAAAAAAIAAAAAAIIIIIIIAIIIIIIIIAAAAAAAAAAAAAA
AAIIIIIIIIAIIIIIIIIIAAAAAAAIAAAAAAIIIIIIIAIIIIIIIIAIAAAAAAAAAAAA
AAIIIIIIIIAIIIIIIIIIAAAAAAAIAAAAAAIIIIIIIAIIIIIIIIIIAAAAAAAAAAAA
AAIIIIIIIIAIIIIIIIIIAAAAAAAIAAAAAAIIIIIIIAIIIIIIIIIIIAAAAAAAAAAA
AAIIIIIIIIAIIIIIIIIIAAAAAAAIAAAAAAIIIIIIIAIIIIIIIIIIIIAAAAAAAAAA
AAIIIIIIIIAIIIIIIIIIAAAAAAAIAAAAAAIIIIIIIAIIIIIIIIIIIIIAAAAAAAAA
AAIIIIIIIIAIIIIIIIIIAAAAAAAIAAAAAAIIIIIIIAIIIIIIIIIIIIIIAAAAAAAA
AAIIIIIIIIAIIIIIIIIIAAAAAAAIAAAAAAIIIIIIIAIIIIIIIIIIIIIIIAAAAAAA
AAIIIIIIIIAIIIIIIIIIAAAAAAAIAAAAAAIIIIIIIAIIIIIIIIIIIIIIIAAIAAAA
AAIIIIIIIIAIIIIIIIIIAAAAAAAIAAAAAAIIIIIIIAIIIIIIIIIIIIIIIIAIAAAA
AAIIIIIIIIAIIIIIIIIIAAAAAAAIAAAAAAIIIIIIIAIIIIIIIIIIIIIIIIIIAAAA
A2222222222222222IIIIIIIIIIIIIIIIIIIIIIIIIIIIIIIIIIIIIIIIIIIIIII
AA2222222222222222IIIIIIIIIIIIIIIIIIIIIIIIIIIIIIIIIIIIIIIIIIIIII
AAA2222222222222222IIIIIIIIIIIIIIIIIIIIIIIIIIIIIIIIIIIIIIIIIIIII
AAAA2222222222222222IIIIIIIIIIIIIIIIIIIIIIIIIIIIIIIIIIIIIIIIIIII
AAAAA2222222222222222IIIIIIIIIIIIIIIIIIIIIIIIIIIIIIIIIIIIIIIIIII
AAAAAA2222222222222222IIIIIIIIIIIIIIIIIIIIIIIIIIIIIIIIIIIIIIIIII
AAAAAAA2222222222222222IIIIIIIIIIIIIIIIIIIIIIIIIIIIIIIIIIIIIIIII
AAAAAAAA2222222222222222IIIIIIIIIIIIIIIIIIIIIIIIIIIIIIIIIIIIIIII
AAAAAAAAA2222222222222222IIIIIIIIIIIIIIIIIIIIIIIIIIIIIIIIIIIIIII
AAAAAAAAAA2222222222222222IIIIIIIIIIIIIIIIIIIIIIIIIIIIIIIIIIIIII
AAAAAAAAAAA2222222222222222IIIIIIIIIIIIIIIIIIIIIIIIIIIIIIIIIIIII
AAAAAAAAAAAA2222222222222222IIIIIIIIIIIIIIIIIIIIIIIIIIIIIIIIIIII
AAAAAAAAAAAAA2222222222222222IIIIIIIIIIIIIIIIIIIIIIIIIIIIIIIIIII
AAAAAAAAAAAAAA2222222222222222IIIIIIIIIIIIIIIIIIIIIIIIIIIIIIIIII
AAAAAAAAAAAAAAA2222222222222222IIIIIIIIIIIIIIIIIIIIIIIIIIIIIIIII
AAAAAAAAAAAAAAAA2222222222222222IIIIIIIIIIIIIIIIIIIIIIIIIIIIIIII
AAAAAAAAAAAAAAAAA2222222222222222IIIIIIIIIIIIIIIIIIIIIIIIIIIIIII
AAAAAAAAAAAAAAAAAA2222222222222222IIIIIIIIIIIIIIIIIIIIIIIIIIIIII
AAAAAAAAAAAAAAAAAAA2222222222222222IIIIIIIIIIIIIIIIIIIIIIIIIIIII
AAAAAAAAAAAAAAAAAAAA2222222222222222IIIIIIIIIIIIIIIIIIIIIIIIIIII
AAAAAAAAAAAAAAAAAAAAA2222222222222222IIIIIIIIIIIIIIIIIIIIIIIIIII
AAAAAAAAAAAAAAAAAAAAAA2222222222222222IIIIIIIIIIIIIIIIIIIIIIIIII
AAAAAAAAAAAAAAAAAAAAAAA2222222222222222IIIIIIIIIIIIIIIIIIIIIIIII
AAAAAAAAAAAAAAAAAAAAAAAA2222222222222222IIIIIIIIIIIIIIIIIIIIIIII
AAAAAAAAAAAAAAAAAAAAAAAAA2222222222222222IIIIIIIIIIIIIIIIIIIIIII
AAAAAAAAAAAAAAAAAAAAAAAAAA2222222222222222IIIIIIIIIIIIIIIIIIIIII
AAAAAAAAAAAAAAAAAAAAAAAAAAA2222222222222222IIIIIIIIIIIIIIIIIIIII
AAAAAAAAAAAAAAAAAAAAAAAAAAAA2222222222222222IIIIIIIIIIIIIIIIIIII
AAAAAAAAAAAAAAAAAAAAAAAAAAAAA2222222222222222IIIIIIIIIIIIIIIIIII
AAAAAAAAAAAAAAAAAAAAAAAAAAAAAA2222222222222222IIIIIIIIIIIIIIIIII
AAAAAAAAAAAAAAAAAAAAAAAAAAAAAAA2222222222222222IIIIIIIIIIIIIIIII
AAAAAAAAAAAAAAAAAAAAAAAAAAAAAAAA2222222222222222IIIIIIIIIIIIIIII
AAAAAAAAAAAAAAAAAAAAAAAAAAAAAAAAA2222222222222222IIIIIIIIIIIIIII
AAAAAAAAAAAAAAAAAAAAAAAAAAAAAAAAAA2222222222222222IIIIIIIIIIIIII
AAAAAAAAAAAAAAAAAAAAAAAAAAAAAAAAAAA2222222222222222IIIIIIIIIIIII
AAAAAAAAAAAAAAAAAAAAAAAAAAAAAAAAAAAA2222222222222222IIIIIIIIIIII
AAAAAAAAAAAAAAAAAAAAAAAAAAAAAAAAAAAAA2222222222222222IIIIIIIIIII
AAAAAAAAAAAAAAAAAAAAAAAAAAAAAAAAAAAAAA2222222222222222IIIIIIIIII
AAAAAAAAAAAAAAAAAAAAAAAAAAAAAAAAAAAAAAA2222222222222222IIIIIIIII
AAAAAAAAAAAAAAAAAAAAAAAAAAAAAAAAAAAAAAAA2222222222222222IIIIIIII
AAAAAAAAAAAAAAAAAAAAAAAAAAAAAAAAAAAAAAAAA2222222222222222IIIIIII
AAAAAAAAAAAAAAAAAAAAAAAAAAAAAAAAAAAAAAAAAA2222222222222222IIIIII
AAAAAAAAAAAAAAAAAAAAAAAAAAAAAAAAAAAAAAAAAAA2222222222222222IIIII
AAAAAAAAAAAAAAAAAAAAAAAAAAAAAAAAAAAAAAAAAAAA2222222222222222IIII
AAAAAAAAAAAAAAAAAAAAAAAAAAAAAAAAAAAAAAAAAAAAA2222222222222222III
AAAAAAAAAAAAAAAAAAAAAAAAAAAAAAAAAAAAAAAAAAAAAA2222222222222222II
AAAAAAAAAAAAAAAAAAAAAAAAAAAAAAAAAAAAAAAAAAAAAAA2222222222222222I
AAAAAAAAAAAAAAAAAAAAAAAAAAAAAAAAAAAAAAAAAAAAAAAA2222222222222222
AAAAAAAAAAAAAAAAAAAAAAAAAAAAAAAAAAAAAAAAAAAAAAAAA222222222222222
AAAAAAAAAAAAAAAAAAAAAAAAAAAAAAAAAAAAAAAAAAAAAAAAAA22222222222222
AAAAAAAAAAAAAAAAAAAAAAAAAAAAAAAAAAAAAAAAAAAAAAAAAAA2222222222222
AAAAAAAAAAAAAAAAAAAAAAAAAAAAAAAAAAAAAAAAAAAAAAAAAAAA222222222222
AAAAAAAAAAAAAAAAAAAAAAAAAAAAAAAAAAAAAAAAAAAAAAAAAAAAA22222222222
AAAAAAAAAAAAAAAAAAAAAAAAAAAAAAAAAAAAAAAAAAAAAAAAAAAAAA2222222222
AAAAAAAAAAAAAAAAAAAAAAAAAAAAAAAAAAAAAAAAAAAAAAAAAAAAAAA222222222
AAAAAAAAAAAAAAAAAAAAAAAAAAAAAAAAAAAAAAAAAAAAAAAAAAAAAAAA22222222
AAAAAAAAAAAAAAAAAAAAAAAAAAAAAAAAAAAAAAAAAAAAAAAAAAAAAAAAA2222222
AAAAAAAAAAAAAAAAAAAAAAAAAAAAAAAAAAAAAAAAAAAAAAAAAAAAAAAAAA222222
AAAAAAAAAAAAAAAAAAAAAAAAAAAAAAAAAAAAAAAAAAAAAAAAAAAAAAAAAAA22222
AAAAAAAAAAAAAAAAAAAAAAAAAAAAAAAAAAAAAAAAAAAAAAAAAAAAAAAAAAAA2222
AAAAAAAAAAAAAAAAAAAAAAAAAAAAAAAAAAAAAAAAAAAAAAAAAAAAAAAAAAAAA222
AAAAAAAAAAAAAAAAAAAAAAAAAAAAAAAAAAAAAAAAAAAAAAAAAAAAAAAAAAAAAA22
AAAAAAAAAAAAAAAAAAAAAAAAAAAAAAAAAAAAAAAAAAAAAAAAAAAAAAAAAAAAAAA2
AAAAAAAAAAAAAAAAAAAAAAAAAAAAAAAAAAAAAAAAAAAAAAAAAAAAAAAAAAAAAAAA
AAAAIAAAAAAAAAAAAAAAAAAAAAAAAAAAAAAAAAAAAAAAAAAAAAAAAAAAAAAAAAAA
AAAAIIAAAAAAAAAAAAAAAAAAAAAAAAAAAAAAAAAAAAAAAAAAAAAAAAAAAAAAAAAA
AAAAIIIAAAAAAAAAAAAAAAAAAAAAAAAAAAAAAAAAAAAAAAAAAAAAAAAAAAAAAAAA
AAAAIIIIAAAAAAAAAAAAAAAAAAAAAAAAAAAAAAAAAAAAAAAAAAAAAAAAAAAAAAAA
AAAAIIIIIAAAAAAAAAAAAAAAAAAAAAAAAAAAAAAAAAAAAAAAAAAAAAAAAAAAAAAA
AAAAIIIIIIAAAAAAAAAAAAAAAAAAAAAAAAAAAAAAAAAAAAAAAAAAAAAAAAAAAAAA
AAAAIIIIIIIAAAAAAAAAAAAAAAAAAAAAAAAAAAAAAAAAAAAAAAAAAAAAAAAAAAAA
AAAAIIIIIIIIAAAAAAAAAAAAAAAAAAAAAAAAAAAAAAAAAAAAAAAAAAAAAAAAAAAA
AAAAIIIIIIIIIAAAAAAAAAAAAAAAAAAAAAAAAAAAAAAAAAAAAAAAAAAAAAAAAAAA
AAAAIIIIIIIIIIAAAAAAAAAAAAAAAAAAAAAAAAAAAAAAAAAAAAAAAAAAAAAAAAAA
AAAAIIIIIIIIIIIAAAAAAAAAAAAAAAAAAAAAAAAAAAAAAAAAAAAAAAAAAAAAAAAA
AAAAIIIIIIIIIIIIAAAAAAAAAAAAAAAAAAAAAAAAAAAAAAAAAAAAAAAAAAAAAAAA
AAAAIIIIIIIIIIIIIAAAAAAAAAAAAAAAAAAAAAAAAAAAAAAAAAAAAAAAAAAAAAAA
AAAAIIIIIIIIIIIIIIAAAAAAAAAAAAAAAAAAAAAAAAAAAAAAAAAAAAAAAAAAAAAA
AAAAIIIIIIIIIIIIIIIAAAAAAAAAAAAAAAAAAAAAAAAAAAAAAAAAAAAAAAAAAAAA
AAAAIIIIIIIIIIIIIIIIAAAAAAAAAAAAAAAAAAAAAAAAAAAAAAAAAAAAAAAAAAAA
AAAAIIIIIIIIIIIIIIIIIAAAAAAAAAAAAAAAAAAAAAAAAAAAAAAAAAAAAAAAAAAA
AAAAIIIIIIIIIIIIIIIIIIAAAAAAAAAAAAAAAAAAAAAAAAAAAAAAAAAAAAAAAAAA
AAAAIIIIIIIIIIIIIIIIIIIAAAAAAAAAAAAAAAAAAAAAAAAAAAAAAAAAAAAAAAAA
AAAAIIIIIIIIIIIIIIIIIIIIAAAAAAAAAAAAAAAAAAAAAAAAAAAAAAAAAAAAAAAA
AAAAIIIIIIIIIIIIIIIIIIIIIAAAAAAAAAAAAAAAAAAAAAAAAAAAAAAAAAAAAAAA
AAAAIIIIIIIIIIIIIIIIIIIIIIAAAAAAAAAAAAAAAAAAAAAAAAAAAAAAAAAAAAAA
AAAAIIIIIIIIIIIIIIIIIIIIIIIAAAAAAAAAAAAAAAAAAAAAAAAAAAAAAAAAAAAA
AAAAIIIIIIIIIIIIIIIIIIIIIIIIAAAAAAAAAAAAAAAAAAAAAAAAAAAAAAAAAAAA
AAAAIIIIIIIIIIIIIIIIIIIIIIIIIAAAAAAAAAAAAAAAAAAAAAAAAAAAAAAAAAAA
AAAAIIIIIIIIIIIIIIIIIIIIIIIIIIAAAAAAAAAAAAAAAAAAAAAAAAAAAAAAAAAA
AAAAIIIIIIIIIIIIIIIIIIIIIIIIIIIAAAAAAAAAAAAAAAAAAAAAAAAAAAAAAAAA
AAAAIIIIIIIIIIIIIIIIIIIIIIIIIIIIAAAAAAAAAAAAAAAAAAAAAAAAAAAAAAAA
AAAAIIIIIIIIIIIIIIIIIIIIIIIIIIIIIAAAAAAAAAAAAAAAAAAAAAAAAAAAAAAA
AAAAIIIIIIIIIIIIIIIIIIIIIIIIIIIIIIAAAAAAAAAAAAAAAAAAAAAAAAAAAAAA
AAAAIIIIIIIIIIIIIIIIIIIIIIIIIIIIIIIAAAAAAAAAAAAAAAAAAAAAAAAAAAAA
AAAAIIIIIIIIIIIIIIIIIIIIIIIIIIIIIIIIAAAAAAAAAAAAAAAAAAAAAAAAAAAA
AAAAIIIIIIIIIIIIIIIIIIIIIIIIIIIIIIIIIAAAAAAAAAAAAAAAAAAAAAAAAAAA
AAAAIIIIIIIIIIIIIIIIIIIIIIIIIIIIIIIIIIAAAAAAAAAAAAAAAAAAAAAAAAAA
AAAAIIIIIIIIIIIIIIIIIIIIIIIIIIIIIIIIIIIAAAAAAAAAAAAAAAAAAAAAAAAA
AAAAIIIIIIIIIIIIIIIIIIIIIIIIIIIIIIIIIIIIAAAAAAAAAAAAAAAAAAAAAAAA
AAAAIIIIIIIIIIIIIIIIIIIIIIIIIIIIIIIIIIIIIAAAAAAAAAAAAAAAAAAAAAAA
AAAAIIIIIIIIIIIIIIIIIIIIIIIIIIIIIIIIIIIIIIAAAAAAAAAAAAAAAAAAAAAA
AAAAIIIIIIIIIIIIIIIIIIIIIIIIIIIIIIIIIIIIIIIAAAAAAAAAAAAAAAAAAAAA
AAAAIIIIIIIIIIIIIIIIIIIIIIIIIIIIIIIIIIIIIIIIAAAAAAAAAAAAAAAAAAAA
AAAAIIIIIIIIIIIIIIIIIIIIIIIIIIIIIIIIIIIIIIIIIAAAAAAAAAAAAAAAAAAA
AAAAIIIIIIIIIIIIIIIIIIIIIIIIIIIIIIIIIIIIIIIIIIAAAAAAAAAAAAAAAAAA
AAAAIIIIIIIIIIIIIIIIIIIIIIIIIIIIIIIIIIIIIIIIIIIAAAAAAAAAAAAAAAAA
AAAAIIIIIIIIIIIIIIIIIIIIIIIIIIIIIIIIIIIIIIIIIIIIAAAAAAAAAAAAAAAA
AAAAIIIIIIIIIIIIIIIIIIIIIIIIIIIIIIIIIIIIIIIIIIIIIAAAAAAAAAAAAAAA
AAAAIIIIIIIIIIIIIIIIIIIIIIIIIIIIIIIIIIIIIIIIIIIIIIAAAAAAAAAAAAAA
AAAAIIIIIIIIIIIIIIIIIIIIIIIIIIIIIIIIIIIIIIIIIIIIIIIAAAAAAAAAAAAA
AAAAIIIIIIIIIIIIIIIIIIIIIIIIIIIIIIIIIIIIIIIIIIIIIIIIAAAAAAAAAAAA
AAAAIIIIIIIIIIIIIIIIIIIIIIIIIIIIIIIIIIIIIIIIIIIIIIIIIAAAAAAAAAAA
AAAAIIIIIIIIIIIIIIIIIIIIIIIIIIIIIIIIIIIIIIIIIIIIIIIIIIAAAAAAAAAA
AAAAIIIIIIIIIIIIIIIIIIIIIIIIIIIIIIIIIIIIIIIIIIIIIIIIIIIAAAAAAAAA
AAAAIIIIIIIIIIIIIIIIIIIIIIIIIIIIIIIIIIIIIIIIIIIIIIIIIIIIAAAAAAAA
AAAAIIIIIIIIIIIIIIIIIIIIIIIIIIIIIIIIIIIIIIIIIIIIIIIIIIIIIAAAAAAA
AAAAIIIIIIIIIIIIIIIIIIIIIIIIIIIIIIIIIIIIIIIIIIIIIIIIIIIIIIAAAAAA
AAAAIIIIIIIIIIIIIIIIIIIIIIIIIIIIIIIIIIIIIIIIIIIIIIIIIIIIIIIAAAAA
AAAAIIIIIIIIIIIIIIIIIIIIIIIIIIIIIIIIIIIIIIIIIIIIIIIIIIIIIIIIAAAA
AAAAIIIIIIIIIIIIIIIIIIIIIIIIIIIIIIIIIIIIIIIIIIIIIIIIIIIIIIIIIAAA
AAAAIIIIIIIIIIIIIIIIIIIIIIIIIIIIIIIIIIIIIIIIIIIIIIIIIIIIIIIIIIAA
AAAAIIIIIIIIIIIIIIIIIIIIIIIIIIIIIIIIIIIIIIIIIIIIIIIIIIIIIIIIIIIA
AAAAIIIIIIIIIIIIIIIIIIIIIIIIIIIIIIIIIIIIIIIIIIIIIIIIIIIIIIIIIIII
A2222222222222222IIIIIIIIIIIIIIIIIIIIIIIIIIIIIIIIIIIIIIIIIIIIIII
AA2222222222222222IIIIIIIIIIIIIIIIIIIIIIIIIIIIIIIIIIIIIIIIIIIIII
AAA2222222222222222IIIIIIIIIIIIIIIIIIIIIIIIIIIIIIIIIIIIIIIIIIIII
AAAA2222222222222222IIIIIIIIIIIIIIIIIIIIIIIIIIIIIIIIIIIIIIIIIIII
AAAAA2222222222222222IIIIIIIIIIIIIIIIIIIIIIIIIIIIIIIIIIIIIIIIIII
AAAAAA2222222222222222IIIIIIIIIIIIIIIIIIIIIIIIIIIIIIIIIIIIIIIIII
AAAAAAA2222222222222222IIIIIIIIIIIIIIIIIIIIIIIIIIIIIIIIIIIIIIIII
AAAAAAAA2222222222222222IIIIIIIIIIIIIIIIIIIIIIIIIIIIIIIIIIIIIIII
AAAAAAAAA2222222222222222IIIIIIIIIIIIIIIIIIIIIIIIIIIIIIIIIIIIIII
AAAAAAAAAA2222222222222222IIIIIIIIIIIIIIIIIIIIIIIIIIIIIIIIIIIIII
AAAAAAAAAAA2222222222222222IIIIIIIIIIIIIIIIIIIIIIIIIIIIIIIIIIIII
AAAAAAAAAAAA2222222222222222IIIIIIIIIIIIIIIIIIIIIIIIIIIIIIIIIIII
AAAAAAAAAAAAA2222222222222222IIIIIIIIIIIIIIIIIIIIIIIIIIIIIIIIIII
AAAAAAAAAAAAAA2222222222222222IIIIIIIIIIIIIIIIIIIIIIIIIIIIIIIIII
AAAAAAAAAAAAAAA2222222222222222IIIIIIIIIIIIIIIIIIIIIIIIIIIIIIIII
AAAAAAAAAAAAAAAA2222222222222222IIIIIIIIIIIIIIIIIIIIIIIIIIIIIIII
AAAAAAAAAAAAAAAAA2222222222222222IIIIIIIIIIIIIIIIIIIIIIIIIIIIIII
AAAAAAAAAAAAAAAAAA2222222222222222IIIIIIIIIIIIIIIIIIIIIIIIIIIIII
AAAAAAAAAAAAAAAAAAA2222222222222222IIIIIIIIIIIIIIIIIIIIIIIIIIIII
AAAAAAAAAAAAAAAAAAAA2222222222222222IIIIIIIIIIIIIIIIIIIIIIIIIIII
AAAAAAAAAAAAAAAAAAAAA2222222222222222IIIIIIIIIIIIIIIIIIIIIIIIIII
AAAAAAAAAAAAAAAAAAAAAA2222222222222222IIIIIIIIIIIIIIIIIIIIIIIIII
AAAAAAAAAAAAAAAAAAAAAAA2222222222222222IIIIIIIIIIIIIIIIIIIIIIIII
AAAAAAAAAAAAAAAAAAAAAAAA2222222222222222IIIIIIIIIIIIIIIIIIIIIIII
AAAAAAAAAAAAAAAAAAAAAAAAA2222222222222222IIIIIIIIIIIIIIIIIIIIIII
AAAAAAAAAAAAAAAAAAAAAAAAAA2222222222222222IIIIIIIIIIIIIIIIIIIIII
AAAAAAAAAAAAAAAAAAAAAAAAAAA2222222222222222IIIIIIIIIIIIIIIIIIIII
AAAAAAAAAAAAAAAAAAAAAAAAAAAA2222222222222222IIIIIIIIIIIIIIIIIIII
AAAAAAAAAAAAAAAAAAAAAAAAAAAAA2222222222222222IIIIIIIIIIIIIIIIIII
AAAAAAAAAAAAAAAAAAAAAAAAAAAAAA2222222222222222IIIIIIIIIIIIIIIIII
AAAAAAAAAAAAAAAAAAAAAAAAAAAAAAA2222222222222222IIIIIIIIIIIIIIIII
AAAAAAAAAAAAAAAAAAAAAAAAAAAAAAAA2222222222222222IIIIIIIIIIIIIIII
AAAAAAAAAAAAAAAAAAAAAAAAAAAAAAAAA2222222222222222IIIIIIIIIIIIIII
AAAAAAAAAAAAAAAAAAAAAAAAAAAAAAAAAA2222222222222222IIIIIIIIIIIIII
AAAAAAAAAAAAAAAAAAAAAAAAAAAAAAAAAAA2222222222222222IIIIIIIIIIIII
AAAAAAAAAAAAAAAAAAAAAAAAAAAAAAAAAAAA2222222222222222IIIIIIIIIIII
AAAAAAAAAAAAAAAAAAAAAAAAAAAAAAAAAAAAA2222222222222222IIIIIIIIIII
AAAAAAAAAAAAAAAAAAAAAAAAAAAAAAAAAAAAAA2222222222222222IIIIIIIIII
AAAAAAAAAAAAAAAAAAAAAAAAAAAAAAAAAAAAAAA2222222222222222IIIIIIIII
AAAAAAAAAAAAAAAAAAAAAAAAAAAAAAAAAAAAAAAA2222222222222222IIIIIIII
AAAAAAAAAAAAAAAAAAAAAAAAAAAAAAAAAAAAAAAAA2222222222222222IIIIIII
AAAAAAAAAAAAAAAAAAAAAAAAAAAAAAAAAAAAAAAAAA2222222222222222IIIIII
AAAAAAAAAAAAAAAAAAAAAAAAAAAAAAAAAAAAAAAAAAA2222222222222222IIIII
AAAAAAAAAAAAAAAAAAAAAAAAAAAAAAAAAAAAAAAAAAAA2222222222222222IIII
AAAAAAAAAAAAAAAAAAAAAAAAAAAAAAAAAAAAAAAAAAAAA2222222222222222III
AAAAAAAAAAAAAAAAAAAAAAAAAAAAAAAAAAAAAAAAAAAAAA2222222222222222II
AAAAAAAAAAAAAAAAAAAAAAAAAAAAAAAAAAAAAAAAAAAAAAA2222222222222222I
AAAAAAAAAAAAAAAAAAAAAAAAAAAAAAAAAAAAAAAAAAAAAAAA2222222222222222
AAAAAAAAAAAAAAAAAAAAAAAAAAAAAAAAAAAAAAAAAAAAAAAAA222222222222222
AAAAAAAAAAAAAAAAAAAAAAAAAAAAAAAAAAAAAAAAAAAAAAAAAA22222222222222
AAAAAAAAAAAAAAAAAAAAAAAAAAAAAAAAAAAAAAAAAAAAAAAAAAA2222222222222
AAAAAAAAAAAAAAAAAAAAAAAAAAAAAAAAAAAAAAAAAAAAAAAAAAAA222222222222
AAAAAAAAAAAAAAAAAAAAAAAAAAAAAAAAAAAAAAAAAAAAAAAAAAAAA22222222222
AAAAAAAAAAAAAAAAAAAAAAAAAAAAAAAAAAAAAAAAAAAAAAAAAAAAAA2222222222
AAAAAAAAAAAAAAAAAAAAAAAAAAAAAAAAAAAAAAAAAAAAAAAAAAAAAAA222222222
AAAAAAAAAAAAAAAAAAAAAAAAAAAAAAAAAAAAAAAAAAAAAAAAAAAAAAAA22222222
AAAAAAAAAAAAAAAAAAAAAAAAAAAAAAAAAAAAAAAAAAAAAAAAAAAAAAAAA2222222
AAAAAAAAAAAAAAAAAAAAAAAAAAAAAAAAAAAAAAAAAAAAAAAAAAAAAAAAAA222222
AAAAAAAAAAAAAAAAAAAAAAAAAAAAAAAAAAAAAAAAAAAAAAAAAAAAAAAAAAA22222
AAAAAAAAAAAAAAAAAAAAAAAAAAAAAAAAAAAAAAAAAAAAAAAAAAAAAAAAAAAA2222
AAAAAAAAAAAAAAAAAAAAAAAAAAAAAAAAAAAAAAAAAAAAAAAAAAAAAAAAAAAAA222
AAAAAAAAAAAAAAAAAAAAAAAAAAAAAAAAAAAAAAAAAAAAAAAAAAAAAAAAAAAAAA22
AAAAAAAAAAAAAAAAAAAAAAAAAAAAAAAAAAAAAAAAAAAAAAAAAAAAAAAAAAAAAAA2
AAAAAAAAAAAAAAAAAAAAAAAAAAAAAAAAAAAAAAAAAAAAAAAAAAAAAAAAAAAAAAAA
AAAIAAAAAAAAAAAAAAAAAAAAAAAAAAAAAAAAAAAAAAAAAAAAAAAAAAAAAAAAAAAA
AAAIIAAAAAAAAAAAAAAAAAAAAAAAAAAAAAAAAAAAAAAAAAAAAAAAAAAAAAAAAAAA
AAAIIIAAAAAAAAAAAAAAAAAAAAAAAAAAAAAAAAAAAAAAAAAAAAAAAAAAAAAAAAAA
AAAIIIIAAAAAAAAAAAAAAAAAAAAAAAAAAAAAAAAAAAAAAAAAAAAAAAAAAAAAAAAA
AAAIIIIIAAAAAAAAAAAAAAAAAAAAAAAAAAAAAAAAAAAAAAAAAAAAAAAAAAAAAAAA
AAAIIIIIIAAAAAAAAAAAAAAAAAAAAAAAAAAAAAAAAAAAAAAAAAAAAAAAAAAAAAAA
AAAIIIIIIIAAAAAAAAAAAAAAAAAAAAAAAAAAAAAAAAAAAAAAAAAAAAAAAAAAAAAA
AAAIIIIIIIIAAAAAAAAAAAAAAAAAAAAAAAAAAAAAAAAAAAAAAAAAAAAAAAAAAAAA
AAAIIIIIIIIIAAAAAAAAAAAAAAAAAAAAAAAAAAAAAAAAAAAAAAAAAAAAAAAAAAAA
AAAIIIIIIIIIIAAAAAAAAAAAAAAAAAAAAAAAAAAAAAAAAAAAAAAAAAAAAAAAAAAA
AAAIIIIIIIIIIIAAAAAAAAAAAAAAAAAAAAAAAAAAAAAAAAAAAAAAAAAAAAAAAAAA
AAAIIIIIIIIIIIIAAAAAAAAAAAAAAAAAAAAAAAAAAAAAAAAAAAAAAAAAAAAAAAAA
AAAIIIIIIIIIIIIIAAAAAAAAAAAAAAAAAAAAAAAAAAAAAAAAAAAAAAAAAAAAAAAA
AAAIIIIIIIIIIIIIIAAAAAAAAAAAAAAAAAAAAAAAAAAAAAAAAAAAAAAAAAAAAAAA
AAAIIIIIIIIIIIIIIIAAAAAAAAAAAAAAAAAAAAAAAAAAAAAAAAAAAAAAAAAAAAAA
AAAIIIIIIIIIIIIIIIIAAAAAAAAAAAAAAAAAAAAAAAAAAAAAAAAAAAAAAAAAAAAA
AAAIIIIIIIIIIIIIIIIIAAAAAAAAAAAAAAAAAAAAAAAAAAAAAAAAAAAAAAAAAAAA
AAAIIIIIIIIIIIIIIIIIIAAAAAAAAAAAAAAAAAAAAAAAAAAAAAAAAAAAAAAAAAAA
AAAIIIIIIIIIIIIIIIIIIIAAAAAAAAAAAAAAAAAAAAAAAAAAAAAAAAAAAAAAAAAA
AAAIIIIIIIIIIIIIIIIIIIIAAAAAAAAAAAAAAAAAAAAAAAAAAAAAAAAAAAAAAAAA
AAAIIIIIIIIIIIIIIIIIIIIIAAAAAAAAAAAAAAAAAAAAAAAAAAAAAAAAAAAAAAAA
AAAIIIIIIIIIIIIIIIIIIIIIIAAAAAAAAAAAAAAAAAAAAAAAAAAAAAAAAAAAAAAA
AAAIIIIIIIIIIIIIIIIIIIIIIIAAAAAAAAAAAAAAAAAAAAAAAAAAAAAAAAAAAAAA
AAAIIIIIIIIIIIIIIIIIIIIIIIIAAAAAAAAAAAAAAAAAAAAAAAAAAAAAAAAAAAAA
AAAIIIIIIIIIIIIIIIIIIIIIIIIIAAAAAAAAAAAAAAAAAAAAAAAAAAAAAAAAAAAA
AAAIIIIIIIIIIIIIIIIIIIIIIIIIIAAAAAAAAAAAAAAAAAAAAAAAAAAAAAAAAAAA
AAAIIIIIIIIIIIIIIIIIIIIIIIIIIIAAAAAAAAAAAAAAAAAAAAAAAAAAAAAAAAAA
AAAIIIIIIIIIIIIIIIIIIIIIIIIIIIIAAAAAAAAAAAAAAAAAAAAAAAAAAAAAAAAA
AAAIIIIIIIIIIIIIIIIIIIIIIIIIIIIIAAAAAAAAAAAAAAAAAAAAAAAAAAAAAAAA
AAAIIIIIIIIIIIIIIIIIIIIIIIIIIIIIIAAAAAAAAAAAAAAAAAAAAAAAAAAAAAAA
AAAIIIIIIIIIIIIIIIIIIIIIIIIIIIIIIIAAAAAAAAAAAAAAAAAAAAAAAAAAAAAA
AAAIIIIIIIIIIIIIIIIIIIIIIIIIIIIIIIIAAAAAAAAAAAAAAAAAAAAAAAAAAAAA
AAAIIIIIIIIIIIIIIIIIIIIIIIIIIIIIIIIIAAAAAAAAAAAAAAAAAAAAAAAAAAAA
AAAIIIIIIIIIIIIIIIIIIIIIIIIIIIIIIIIIIAAAAAAAAAAAAAAAAAAAAAAAAAAA
AAAIIIIIIIIIIIIIIIIIIIIIIIIIIIIIIIIIIIAAAAAAAAAAAAAAAAAAAAAAAAAA
AAAIIIIIIIIIIIIIIIIIIIIIIIIIIIIIIIIIIIIAAAAAAAAAAAAAAAAAAAAAAAAA
AAAIIIIIIIIIIIIIIIIIIIIIIIIIIIIIIIIIIIIIAAAAAAAAAAAAAAAAAAAAAAAA
AAAIIIIIIIIIIIIIIIIIIIIIIIIIIIIIIIIIIIIIIAAAAAAAAAAAAAAAAAAAAAAA
AAAIIIIIIIIIIIIIIIIIIIIIIIIIIIIIIIIIIIIIIIAAAAAAAAAAAAAAAAAAAAAA
AAAIIIIIIIIIIIIIIIIIIIIIIIIIIIIIIIIIIIIIIIIAAAAAAAAAAAAAAAAAAAAA
AAAIIIIIIIIIIIIIIIIIIIIIIIIIIIIIIIIIIIIIIIIIAAAAAAAAAAAAAAAAAAAA
AAAIIIIIIIIIIIIIIIIIIIIIIIIIIIIIIIIIIIIIIIIIIAAAAAAAAAAAAAAAAAAA
AAAIIIIIIIIIIIIIIIIIIIIIIIIIIIIIIIIIIIIIIIIIIIAAAAAAAAAAAAAAAAAA
AAAIIIIIIIIIIIIIIIIIIIIIIIIIIIIIIIIIIIIIIIIIIIIAAAAAAAAAAAAAAAAA
AAAIIIIIIIIIIIIIIIIIIIIIIIIIIIIIIIIIIIIIIIIIIIIIAAAAAAAAAAAAAAAA
AAAIIIIIIIIIIIIIIIIIIIIIIIIIIIIIIIIIIIIIIIIIIIIIIAAAAAAAAAAAAAAA
AAAIIIIIIIIIIIIIIIIIIIIIIIIIIIIIIIIIIIIIIIIIIIIIIIAAAAAAAAAAAAAA
AAAIIIIIIIIIIIIIIIIIIIIIIIIIIIIIIIIIIIIIIIIIIIIIIIIAAAAAAAAAAAAA
AAAIIIIIIIIIIIIIIIIIIIIIIIIIIIIIIIIIIIIIIIIIIIIIIIIIAAAAAAAAAAAA
AAAIIIIIIIIIIIIIIIIIIIIIIIIIIIIIIIIIIIIIIIIIIIIIIIIIIAAAAAAAAAAA
AAAIIIIIIIIIIIIIIIIIIIIIIIIIIIIIIIIIIIIIIIIIIIIIIIIIIIAAAAAAAAAA
AAAIIIIIIIIIIIIIIIIIIIIIIIIIIIIIIIIIIIIIIIIIIIIIIIIIIIIAAAAAAAAA
AAAIIIIIIIIIIIIIIIIIIIIIIIIIIIIIIIIIIIIIIIIIIIIIIIIIIIIIAAAAAAAA
AAAIIIIIIIIIIIIIIIIIIIIIIIIIIIIIIIIIIIIIIIIIIIIIIIIIIIIIIAAAAAAA
AAAIIIIIIIIIIIIIIIIIIIIIIIIIIIIIIIIIIIIIIIIIIIIIIIIIIIIIIIAAAAAA
AAAIIIIIIIIIIIIIIIIIIIIIIIIIIIIIIIIIIIIIIIIIIIIIIIIIIIIIIIIAAAAA
AAAIIIIIIIIIIIIIIIIIIIIIIIIIIIIIIIIIIIIIIIIIIIIIIIIIIIIIIIIIAAAA
AAAIIIIIIIIIIIIIIIIIIIIIIIIIIIIIIIIIIIIIIIIIIIIIIIIIIIIIIIIIIAAA
AAAIIIIIIIIIIIIIIIIIIIIIIIIIIIIIIIIIIIIIIIIIIIIIIIIIIIIIIIIIIIAA
AAAIIIIIIIIIIIIIIIIIIIIIIIIIIIIIIIIIIIIIIIIIIIIIIIIIIIIIIIIIIIIA
AAAIIIIIIIIIIIIIIIIIIIIIIIIIIIIIIIIIIIIIIIIIIIIIIIIIIIIIIIIIIIII
[MLOP] Prefetch Degree Mean: 16.00000
[MLOP] Prefetch Degree SD: 0.00000
[MLOP] Max Score Left Mean (%): 76.19004
[MLOP] Max Score Left SD (%): 0.32247
[MLOP] Max Score Right Mean (%): 99.99993
[MLOP] Max Score Right SD (%): 0.00529

Channel_0_RQ_row_buffer_hit 7810953
Channel_0_RQ_row_buffer_miss 4872524
Channel_0_WQ_row_buffer_hit 1345744
Channel_0_WQ_row_buffer_miss 3668557
Channel_0_WQ_full 0
Channel_0_dbus_congested 11964730

avg_congested_cycle 10

DRAM_bw_pochs 2925472
DRAM_bw_level_0 1005837
DRAM_bw_level_1 868477
DRAM_bw_level_2 421104
DRAM_bw_level_3 630054
