*************************************************
   ChampSim Multicore Out-of-Order Simulator
   Last compiled: Nov 21 2024 21:50:18
*************************************************
parsing config file: /home/shichen/os/compile-time-prefetcher-classification/ChampSim/config/pythia.ini

trace_0 /home/shichen/os/compile-time-prefetcher-classification/ChampSim/traces/605.mcf_s-1536B.champsimtrace.xz
adding L2C_PREFETCHER: Scooby
Initialize SHIP state
warmup_instructions 100000000
simulation_instructions 500000000
champsim_seed 273
measure_ipc 0
measure_ipc_epoch 1000
measure_dram_bw 1
measure_dram_bw_epoch 256
measure_cache_acc 1
measure_cache_acc_epoch 1024
l1d_perfect 0
l2c_perfect 0
llc_perfect 0
l1d_semi_perfect 0
l2c_semi_perfect 0
llc_semi_perfect 0
semi_perfect_cache_page_buffer_size 64

num_cpus 1
cpu_freq 4000
dram_io_freq 2400
page_size 4096
block_size 64
max_read_per_cycle 8
max_fill_per_cycle 1
dram_channels 1
log2_dram_channels 0
dram_ranks 1
dram_banks 8
dram_rows 65536
dram_columns 128
dram_row_size 8
dram_size 4096
dram_pages 1048576

fetch_width 6
decode_width 6
exec_width 4
lq_width 2
sq_width 2
retire_width 4
scheduler_size 128
branch_mispredict_penalty 20
rob_size 256
lq_size 72
sq_size 56
num_instr_destinations_sparc 4
num_instr_destinations 2
num_instr_sources 4

itlb_set 16
itlb_way 8
itlb_rq_size 16
itlb_wq_size 16
itlb_pq_size 0
itlb_mshr_size 8
itlb_latency 1

dtlb_set 16
dtlb_way 4
dtlb_rq_size 16
dtlb_wq_size 16
dtlb_pq_size 0
dtlb_mshr_size 8
dtlb_latency 1

stlb_set 128
stlb_way 12
stlb_rq_size 32
stlb_wq_size 32
stlb_pq_size 0
stlb_mshr_size 16
stlb_latency 8

l1i_size 32
l1i_set 64
l1i_way 8
l1i_rq_size 64
l1i_wq_size 64
l1i_pq_size 8
l1i_mshr_size 8
l1i_latency 1

l1d_size 32
l1d_set 64
l1d_way 8
l1d_rq_size 64
l1d_wq_size 64
l1d_pq_size 8
l1d_mshr_size 16
l1d_latency 4

l2c_size 256
l2c_set 512
l2c_way 8
l2c_rq_size 32
l2c_wq_size 32
l2c_pq_size 32
l2c_mshr_size 32
l2c_latency 10

llc_size 2048
llc_set 2048
llc_way 16
llc_rq_size 32
llc_wq_size 32
llc_pq_size 32
llc_mshr_size 64
llc_latency 20

dram_channel_width 8
dram_wq_size 64
dram_rq_size 64
tRP 15
tRCD 15
tCAS 12.5
dram_dbus_turn_around_time 30
dram_write_high_wm 56
dram_write_low_wm 48
min_dram_writes_per_switch 16
dram_mtps 2400
dram_dbus_return_time 13

scooby_alpha 0.0065088
scooby_gamma 0.556301
scooby_epsilon 0.00182284
scooby_state_num_bits 10
scooby_max_states 1024
scooby_seed 200
scooby_policy EGreedy
scooby_learning_type SARSA
scooby_actions 1,3,4,5,10,11,12,22,23,30,32,-1,-3,-6,0,
scooby_max_actions 15
scooby_pt_size 256
scooby_st_size 64
scooby_max_pcs 5
scooby_max_offsets 5
scooby_max_deltas 5
scooby_reward_none -4
scooby_reward_incorrect -8
scooby_reward_correct_untimely 12
scooby_reward_correct_timely 20
scooby_brain_zero_init 0
scooby_enable_reward_all 0
scooby_enable_track_multiple 0
scooby_enable_reward_out_of_bounds 1
scooby_reward_out_of_bounds -12
scooby_state_type 1
scooby_state_hash_type 11
scooby_access_debug 0
scooby_print_access_debug 0
scooby_print_access_debug_pc deadbeef
scooby_print_access_debug_pc_count 0
scooby_print_trace 0
scooby_enable_state_action_stats 1
scooby_enable_reward_tracker_hit 0
scooby_reward_tracker_hit -2
scooby_enable_featurewise_engine 1
scooby_pref_degree 1
scooby_enable_dyn_degree 1
scooby_max_to_avg_q_thresholds 0.5,1,2,
scooby_dyn_degrees 1,2,4,4,
scooby_multi_deg_select_type 2
scooby_last_pref_offset_conf_thresholds 1,3,8,
scooby_dyn_degrees_type2 1,2,4,6,
scooby_action_tracker_size 2
scooby_high_bw_thresh 4
scooby_enable_hbw_reward 1
scooby_reward_hbw_correct_timely 20
scooby_reward_hbw_correct_untimely 12
scooby_reward_hbw_incorrect -14
scooby_reward_hbw_none -2
scooby_reward_hbw_out_of_bounds -12
scooby_reward_hbw_tracker_hit -2
scooby_last_pref_offset_conf_thresholds_hbw 1,3,8,
scooby_dyn_degrees_type2_hbw 1,2,4,6,

le_enable_trace 0
le_trace_interval 0
le_trace_file_name 
le_trace_state 0
le_enable_score_plot 0
le_plot_file_name 
le_plot_actions 
le_enable_action_trace 0
le_action_trace_interval 0
le_action_trace_name 
le_enable_action_plot 0

le_featurewise_active_features PC, PC_Delta
le_featurewise_num_tilings 3,3,
le_featurewise_num_tiles 128,128,
le_featurewise_hash_types 2,2,
le_featurewise_enable_tiling_offset 1,1,
le_featurewise_max_q_thresh 0.5
le_featurewise_enable_action_fallback 1
le_featurewise_feature_weights 1,1,
le_featurewise_enable_dynamic_weight 0
le_featurewise_weight_gradient 0.001
le_featurewise_disable_adjust_weight_all_features_align 1
le_featurewise_selective_update 0
le_featurewise_pooling_type 2
le_featurewise_enable_dyn_action_fallback 1
le_featurewise_bw_acc_check_level 1
le_featurewise_acc_thresh 2
le_featurewise_enable_trace 0
le_featurewise_trace_feature_type 0
le_featurewise_trace_feature 
le_featurewise_trace_interval 0
le_featurewise_trace_record_count 0
le_featurewise_trace_file_name 
le_featurewise_enable_score_plot 0
le_featurewise_plot_actions 
le_featurewise_plot_file_name 


Heartbeat CPU  0 instructions:    1000001 cycles:     373214 heartbeat IPC: 2.67943 cumulative IPC: 2.67943 (Simulation time: 0 hr 0 min 3 sec) 
Heartbeat CPU  0 instructions:    2000003 cycles:     746556 heartbeat IPC: 2.67851 cumulative IPC: 2.67897 (Simulation time: 0 hr 0 min 5 sec) 
Heartbeat CPU  0 instructions:    3000002 cycles:    1119834 heartbeat IPC: 2.67897 cumulative IPC: 2.67897 (Simulation time: 0 hr 0 min 7 sec) 
Heartbeat CPU  0 instructions:    4000000 cycles:    1492909 heartbeat IPC: 2.68042 cumulative IPC: 2.67933 (Simulation time: 0 hr 0 min 10 sec) 
Heartbeat CPU  0 instructions:    5000003 cycles:    1865976 heartbeat IPC: 2.68049 cumulative IPC: 2.67956 (Simulation time: 0 hr 0 min 12 sec) 
Heartbeat CPU  0 instructions:    6000003 cycles:    2239188 heartbeat IPC: 2.67944 cumulative IPC: 2.67954 (Simulation time: 0 hr 0 min 15 sec) 
Heartbeat CPU  0 instructions:    7000001 cycles:    2612312 heartbeat IPC: 2.68007 cumulative IPC: 2.67962 (Simulation time: 0 hr 0 min 17 sec) 
Heartbeat CPU  0 instructions:    8000000 cycles:    2985273 heartbeat IPC: 2.68124 cumulative IPC: 2.67982 (Simulation time: 0 hr 0 min 19 sec) 
Heartbeat CPU  0 instructions:    9000003 cycles:    3359219 heartbeat IPC: 2.67419 cumulative IPC: 2.67920 (Simulation time: 0 hr 0 min 22 sec) 
Heartbeat CPU  0 instructions:   10000002 cycles:    3733075 heartbeat IPC: 2.67482 cumulative IPC: 2.67876 (Simulation time: 0 hr 0 min 24 sec) 
Heartbeat CPU  0 instructions:   11000000 cycles:    4106945 heartbeat IPC: 2.67472 cumulative IPC: 2.67839 (Simulation time: 0 hr 0 min 27 sec) 
Heartbeat CPU  0 instructions:   12000000 cycles:    4480275 heartbeat IPC: 2.67860 cumulative IPC: 2.67841 (Simulation time: 0 hr 0 min 29 sec) 
Heartbeat CPU  0 instructions:   13000003 cycles:    4853711 heartbeat IPC: 2.67784 cumulative IPC: 2.67836 (Simulation time: 0 hr 0 min 31 sec) 
Heartbeat CPU  0 instructions:   14000003 cycles:    5226477 heartbeat IPC: 2.68265 cumulative IPC: 2.67867 (Simulation time: 0 hr 0 min 33 sec) 
Heartbeat CPU  0 instructions:   15000003 cycles:    5599389 heartbeat IPC: 2.68160 cumulative IPC: 2.67886 (Simulation time: 0 hr 0 min 36 sec) 
Heartbeat CPU  0 instructions:   16000000 cycles:    5972028 heartbeat IPC: 2.68355 cumulative IPC: 2.67916 (Simulation time: 0 hr 0 min 38 sec) 
Heartbeat CPU  0 instructions:   17000000 cycles:    6345621 heartbeat IPC: 2.67671 cumulative IPC: 2.67901 (Simulation time: 0 hr 0 min 41 sec) 
Heartbeat CPU  0 instructions:   18000002 cycles:    6719750 heartbeat IPC: 2.67288 cumulative IPC: 2.67867 (Simulation time: 0 hr 0 min 43 sec) 
Heartbeat CPU  0 instructions:   19000000 cycles:    7093917 heartbeat IPC: 2.67260 cumulative IPC: 2.67835 (Simulation time: 0 hr 0 min 46 sec) 
Heartbeat CPU  0 instructions:   20000000 cycles:    7467947 heartbeat IPC: 2.67358 cumulative IPC: 2.67811 (Simulation time: 0 hr 0 min 48 sec) 
Heartbeat CPU  0 instructions:   21000000 cycles:    7842032 heartbeat IPC: 2.67319 cumulative IPC: 2.67788 (Simulation time: 0 hr 0 min 51 sec) 
Heartbeat CPU  0 instructions:   22000003 cycles:    8216128 heartbeat IPC: 2.67312 cumulative IPC: 2.67766 (Simulation time: 0 hr 0 min 53 sec) 
Heartbeat CPU  0 instructions:   23000001 cycles:    8590215 heartbeat IPC: 2.67317 cumulative IPC: 2.67747 (Simulation time: 0 hr 0 min 56 sec) 
Heartbeat CPU  0 instructions:   24000000 cycles:    8964276 heartbeat IPC: 2.67336 cumulative IPC: 2.67729 (Simulation time: 0 hr 0 min 59 sec) 
Heartbeat CPU  0 instructions:   25000002 cycles:    9338415 heartbeat IPC: 2.67281 cumulative IPC: 2.67711 (Simulation time: 0 hr 1 min 1 sec) 
Heartbeat CPU  0 instructions:   26000000 cycles:    9712498 heartbeat IPC: 2.67320 cumulative IPC: 2.67696 (Simulation time: 0 hr 1 min 4 sec) 
Heartbeat CPU  0 instructions:   27000001 cycles:   10086588 heartbeat IPC: 2.67316 cumulative IPC: 2.67682 (Simulation time: 0 hr 1 min 6 sec) 
Heartbeat CPU  0 instructions:   28000000 cycles:   10459857 heartbeat IPC: 2.67903 cumulative IPC: 2.67690 (Simulation time: 0 hr 1 min 9 sec) 
Heartbeat CPU  0 instructions:   29000002 cycles:   10832256 heartbeat IPC: 2.68530 cumulative IPC: 2.67719 (Simulation time: 0 hr 1 min 11 sec) 
Heartbeat CPU  0 instructions:   30000002 cycles:   11204556 heartbeat IPC: 2.68601 cumulative IPC: 2.67748 (Simulation time: 0 hr 1 min 14 sec) 
Heartbeat CPU  0 instructions:   31000002 cycles:   11577530 heartbeat IPC: 2.68115 cumulative IPC: 2.67760 (Simulation time: 0 hr 1 min 17 sec) 
Heartbeat CPU  0 instructions:   32000000 cycles:   11951595 heartbeat IPC: 2.67333 cumulative IPC: 2.67747 (Simulation time: 0 hr 1 min 19 sec) 
Heartbeat CPU  0 instructions:   33000002 cycles:   12324557 heartbeat IPC: 2.68124 cumulative IPC: 2.67758 (Simulation time: 0 hr 1 min 22 sec) 
Heartbeat CPU  0 instructions:   34000003 cycles:   12697757 heartbeat IPC: 2.67953 cumulative IPC: 2.67764 (Simulation time: 0 hr 1 min 24 sec) 
Heartbeat CPU  0 instructions:   35000002 cycles:   13071621 heartbeat IPC: 2.67477 cumulative IPC: 2.67756 (Simulation time: 0 hr 1 min 27 sec) 
Heartbeat CPU  0 instructions:   36000000 cycles:   13446146 heartbeat IPC: 2.67004 cumulative IPC: 2.67735 (Simulation time: 0 hr 1 min 29 sec) 
Heartbeat CPU  0 instructions:   37000003 cycles:   13821238 heartbeat IPC: 2.66602 cumulative IPC: 2.67704 (Simulation time: 0 hr 1 min 32 sec) 
Heartbeat CPU  0 instructions:   38000000 cycles:   14194171 heartbeat IPC: 2.68144 cumulative IPC: 2.67716 (Simulation time: 0 hr 1 min 34 sec) 
Heartbeat CPU  0 instructions:   39000003 cycles:   14567175 heartbeat IPC: 2.68094 cumulative IPC: 2.67725 (Simulation time: 0 hr 1 min 37 sec) 
Heartbeat CPU  0 instructions:   40000000 cycles:   14940105 heartbeat IPC: 2.68146 cumulative IPC: 2.67736 (Simulation time: 0 hr 1 min 39 sec) 
Heartbeat CPU  0 instructions:   41000002 cycles:   15313129 heartbeat IPC: 2.68080 cumulative IPC: 2.67744 (Simulation time: 0 hr 1 min 41 sec) 
Heartbeat CPU  0 instructions:   42000000 cycles:   15686544 heartbeat IPC: 2.67798 cumulative IPC: 2.67745 (Simulation time: 0 hr 1 min 44 sec) 
Heartbeat CPU  0 instructions:   43000002 cycles:   16059867 heartbeat IPC: 2.67865 cumulative IPC: 2.67748 (Simulation time: 0 hr 1 min 46 sec) 
Heartbeat CPU  0 instructions:   44000000 cycles:   16433247 heartbeat IPC: 2.67823 cumulative IPC: 2.67750 (Simulation time: 0 hr 1 min 49 sec) 
Heartbeat CPU  0 instructions:   45000003 cycles:   16809056 heartbeat IPC: 2.66093 cumulative IPC: 2.67713 (Simulation time: 0 hr 1 min 52 sec) 
Heartbeat CPU  0 instructions:   46000002 cycles:   17183437 heartbeat IPC: 2.67107 cumulative IPC: 2.67700 (Simulation time: 0 hr 1 min 54 sec) 
Heartbeat CPU  0 instructions:   47000003 cycles:   17563610 heartbeat IPC: 2.63038 cumulative IPC: 2.67599 (Simulation time: 0 hr 1 min 57 sec) 
Heartbeat CPU  0 instructions:   48000000 cycles:   17937104 heartbeat IPC: 2.67741 cumulative IPC: 2.67602 (Simulation time: 0 hr 2 min 0 sec) 
Heartbeat CPU  0 instructions:   49000000 cycles:   18310686 heartbeat IPC: 2.67679 cumulative IPC: 2.67603 (Simulation time: 0 hr 2 min 2 sec) 
Heartbeat CPU  0 instructions:   50000002 cycles:   18684338 heartbeat IPC: 2.67629 cumulative IPC: 2.67604 (Simulation time: 0 hr 2 min 5 sec) 
Heartbeat CPU  0 instructions:   51000003 cycles:   19057991 heartbeat IPC: 2.67628 cumulative IPC: 2.67604 (Simulation time: 0 hr 2 min 8 sec) 
Heartbeat CPU  0 instructions:   52000000 cycles:   19431519 heartbeat IPC: 2.67717 cumulative IPC: 2.67606 (Simulation time: 0 hr 2 min 10 sec) 
Heartbeat CPU  0 instructions:   53000000 cycles:   19805386 heartbeat IPC: 2.67475 cumulative IPC: 2.67604 (Simulation time: 0 hr 2 min 13 sec) 
Heartbeat CPU  0 instructions:   54000000 cycles:   20180086 heartbeat IPC: 2.66880 cumulative IPC: 2.67591 (Simulation time: 0 hr 2 min 16 sec) 
Heartbeat CPU  0 instructions:   55000002 cycles:   20554853 heartbeat IPC: 2.66833 cumulative IPC: 2.67577 (Simulation time: 0 hr 2 min 18 sec) 
Heartbeat CPU  0 instructions:   56000000 cycles:   20929759 heartbeat IPC: 2.66733 cumulative IPC: 2.67562 (Simulation time: 0 hr 2 min 21 sec) 
Heartbeat CPU  0 instructions:   57000001 cycles:   21305487 heartbeat IPC: 2.66150 cumulative IPC: 2.67537 (Simulation time: 0 hr 2 min 24 sec) 
Heartbeat CPU  0 instructions:   58000001 cycles:   21680287 heartbeat IPC: 2.66809 cumulative IPC: 2.67524 (Simulation time: 0 hr 2 min 26 sec) 
Heartbeat CPU  0 instructions:   59000002 cycles:   22056030 heartbeat IPC: 2.66140 cumulative IPC: 2.67501 (Simulation time: 0 hr 2 min 29 sec) 
Heartbeat CPU  0 instructions:   60000000 cycles:   22430709 heartbeat IPC: 2.66895 cumulative IPC: 2.67490 (Simulation time: 0 hr 2 min 32 sec) 
Heartbeat CPU  0 instructions:   61000001 cycles:   22804630 heartbeat IPC: 2.67436 cumulative IPC: 2.67490 (Simulation time: 0 hr 2 min 34 sec) 
Heartbeat CPU  0 instructions:   62000003 cycles:   23178451 heartbeat IPC: 2.67508 cumulative IPC: 2.67490 (Simulation time: 0 hr 2 min 37 sec) 
Heartbeat CPU  0 instructions:   63000001 cycles:   23552452 heartbeat IPC: 2.67378 cumulative IPC: 2.67488 (Simulation time: 0 hr 2 min 40 sec) 
Heartbeat CPU  0 instructions:   64000000 cycles:   23926465 heartbeat IPC: 2.67370 cumulative IPC: 2.67486 (Simulation time: 0 hr 2 min 42 sec) 
Heartbeat CPU  0 instructions:   65000002 cycles:   24301222 heartbeat IPC: 2.66840 cumulative IPC: 2.67476 (Simulation time: 0 hr 2 min 45 sec) 
Heartbeat CPU  0 instructions:   66000000 cycles:   24676101 heartbeat IPC: 2.66752 cumulative IPC: 2.67465 (Simulation time: 0 hr 2 min 48 sec) 
Heartbeat CPU  0 instructions:   67000002 cycles:   25051037 heartbeat IPC: 2.66713 cumulative IPC: 2.67454 (Simulation time: 0 hr 2 min 50 sec) 
Heartbeat CPU  0 instructions:   68000000 cycles:   25425198 heartbeat IPC: 2.67264 cumulative IPC: 2.67451 (Simulation time: 0 hr 2 min 53 sec) 
Heartbeat CPU  0 instructions:   69000003 cycles:   25799422 heartbeat IPC: 2.67220 cumulative IPC: 2.67448 (Simulation time: 0 hr 2 min 56 sec) 
Heartbeat CPU  0 instructions:   70000002 cycles:   26173906 heartbeat IPC: 2.67034 cumulative IPC: 2.67442 (Simulation time: 0 hr 2 min 58 sec) 
Heartbeat CPU  0 instructions:   71000003 cycles:   26547792 heartbeat IPC: 2.67461 cumulative IPC: 2.67442 (Simulation time: 0 hr 3 min 1 sec) 
Heartbeat CPU  0 instructions:   72000000 cycles:   26921718 heartbeat IPC: 2.67432 cumulative IPC: 2.67442 (Simulation time: 0 hr 3 min 4 sec) 
Heartbeat CPU  0 instructions:   73000003 cycles:   27296361 heartbeat IPC: 2.66922 cumulative IPC: 2.67435 (Simulation time: 0 hr 3 min 6 sec) 
Heartbeat CPU  0 instructions:   74000000 cycles:   27670746 heartbeat IPC: 2.67104 cumulative IPC: 2.67430 (Simulation time: 0 hr 3 min 9 sec) 
Heartbeat CPU  0 instructions:   75000002 cycles:   28045023 heartbeat IPC: 2.67182 cumulative IPC: 2.67427 (Simulation time: 0 hr 3 min 12 sec) 
Heartbeat CPU  0 instructions:   76000000 cycles:   28419367 heartbeat IPC: 2.67133 cumulative IPC: 2.67423 (Simulation time: 0 hr 3 min 14 sec) 
Heartbeat CPU  0 instructions:   77000003 cycles:   28794341 heartbeat IPC: 2.66686 cumulative IPC: 2.67414 (Simulation time: 0 hr 3 min 17 sec) 
Heartbeat CPU  0 instructions:   78000003 cycles:   29169275 heartbeat IPC: 2.66714 cumulative IPC: 2.67405 (Simulation time: 0 hr 3 min 20 sec) 
Heartbeat CPU  0 instructions:   79000001 cycles:   29544168 heartbeat IPC: 2.66742 cumulative IPC: 2.67396 (Simulation time: 0 hr 3 min 22 sec) 
Heartbeat CPU  0 instructions:   80000000 cycles:   29919085 heartbeat IPC: 2.66725 cumulative IPC: 2.67388 (Simulation time: 0 hr 3 min 25 sec) 
Heartbeat CPU  0 instructions:   81000002 cycles:   30294031 heartbeat IPC: 2.66706 cumulative IPC: 2.67379 (Simulation time: 0 hr 3 min 28 sec) 
Heartbeat CPU  0 instructions:   82000003 cycles:   30668583 heartbeat IPC: 2.66986 cumulative IPC: 2.67375 (Simulation time: 0 hr 3 min 30 sec) 
Heartbeat CPU  0 instructions:   83000001 cycles:   31043113 heartbeat IPC: 2.67001 cumulative IPC: 2.67370 (Simulation time: 0 hr 3 min 33 sec) 
Heartbeat CPU  0 instructions:   84000000 cycles:   31417681 heartbeat IPC: 2.66974 cumulative IPC: 2.67365 (Simulation time: 0 hr 3 min 36 sec) 
Heartbeat CPU  0 instructions:   85000002 cycles:   31792265 heartbeat IPC: 2.66963 cumulative IPC: 2.67361 (Simulation time: 0 hr 3 min 38 sec) 
Heartbeat CPU  0 instructions:   86000000 cycles:   32166903 heartbeat IPC: 2.66924 cumulative IPC: 2.67356 (Simulation time: 0 hr 3 min 41 sec) 
Heartbeat CPU  0 instructions:   87000001 cycles:   32541472 heartbeat IPC: 2.66974 cumulative IPC: 2.67351 (Simulation time: 0 hr 3 min 44 sec) 
Heartbeat CPU  0 instructions:   88000000 cycles:   32916087 heartbeat IPC: 2.66940 cumulative IPC: 2.67346 (Simulation time: 0 hr 3 min 46 sec) 
Heartbeat CPU  0 instructions:   89000001 cycles:   33291298 heartbeat IPC: 2.66517 cumulative IPC: 2.67337 (Simulation time: 0 hr 3 min 49 sec) 
Heartbeat CPU  0 instructions:   90000002 cycles:   33665844 heartbeat IPC: 2.66990 cumulative IPC: 2.67333 (Simulation time: 0 hr 3 min 52 sec) 
Heartbeat CPU  0 instructions:   91000003 cycles:   34040388 heartbeat IPC: 2.66992 cumulative IPC: 2.67330 (Simulation time: 0 hr 3 min 54 sec) 
Heartbeat CPU  0 instructions:   92000000 cycles:   34414871 heartbeat IPC: 2.67034 cumulative IPC: 2.67326 (Simulation time: 0 hr 3 min 57 sec) 
Heartbeat CPU  0 instructions:   93000000 cycles:   34789408 heartbeat IPC: 2.66996 cumulative IPC: 2.67323 (Simulation time: 0 hr 4 min 0 sec) 
Heartbeat CPU  0 instructions:   94000002 cycles:   35163890 heartbeat IPC: 2.67036 cumulative IPC: 2.67320 (Simulation time: 0 hr 4 min 2 sec) 
Heartbeat CPU  0 instructions:   95000003 cycles:   35539156 heartbeat IPC: 2.66478 cumulative IPC: 2.67311 (Simulation time: 0 hr 4 min 5 sec) 
Heartbeat CPU  0 instructions:   96000000 cycles:   35914497 heartbeat IPC: 2.66424 cumulative IPC: 2.67302 (Simulation time: 0 hr 4 min 8 sec) 
Heartbeat CPU  0 instructions:   97000000 cycles:   36289857 heartbeat IPC: 2.66411 cumulative IPC: 2.67292 (Simulation time: 0 hr 4 min 10 sec) 
Heartbeat CPU  0 instructions:   98000001 cycles:   36665185 heartbeat IPC: 2.66434 cumulative IPC: 2.67284 (Simulation time: 0 hr 4 min 13 sec) 
Heartbeat CPU  0 instructions:   99000003 cycles:   37040518 heartbeat IPC: 2.66431 cumulative IPC: 2.67275 (Simulation time: 0 hr 4 min 16 sec) 
Heartbeat CPU  0 instructions:  100000000 cycles:   37415800 heartbeat IPC: 2.66465 cumulative IPC: 2.67267 (Simulation time: 0 hr 4 min 18 sec) 

Warmup complete CPU  0 instructions:  100000001 cycles:   37415801 (Simulation time: 0 hr 4 min 18 sec) 

Heartbeat CPU  0 instructions:  101000000 cycles:   41516942 heartbeat IPC: 0.24383 cumulative IPC: 0.24383 (Simulation time: 0 hr 4 min 23 sec) 
Heartbeat CPU  0 instructions:  102000003 cycles:   45632573 heartbeat IPC: 0.24298 cumulative IPC: 0.24340 (Simulation time: 0 hr 4 min 27 sec) 
Heartbeat CPU  0 instructions:  103000003 cycles:   49737382 heartbeat IPC: 0.24362 cumulative IPC: 0.24348 (Simulation time: 0 hr 4 min 31 sec) 
Heartbeat CPU  0 instructions:  104000000 cycles:   53831074 heartbeat IPC: 0.24428 cumulative IPC: 0.24368 (Simulation time: 0 hr 4 min 36 sec) 
Heartbeat CPU  0 instructions:  105000001 cycles:   57925900 heartbeat IPC: 0.24421 cumulative IPC: 0.24378 (Simulation time: 0 hr 4 min 40 sec) 
Heartbeat CPU  0 instructions:  106000003 cycles:   62009663 heartbeat IPC: 0.24487 cumulative IPC: 0.24396 (Simulation time: 0 hr 4 min 45 sec) 
Heartbeat CPU  0 instructions:  107000001 cycles:   66100275 heartbeat IPC: 0.24446 cumulative IPC: 0.24403 (Simulation time: 0 hr 4 min 49 sec) 
Heartbeat CPU  0 instructions:  108000000 cycles:   70185354 heartbeat IPC: 0.24479 cumulative IPC: 0.24413 (Simulation time: 0 hr 4 min 53 sec) 
Heartbeat CPU  0 instructions:  109000003 cycles:   74268785 heartbeat IPC: 0.24489 cumulative IPC: 0.24421 (Simulation time: 0 hr 4 min 58 sec) 
Heartbeat CPU  0 instructions:  110000002 cycles:   78352182 heartbeat IPC: 0.24489 cumulative IPC: 0.24428 (Simulation time: 0 hr 5 min 2 sec) 
Heartbeat CPU  0 instructions:  111000000 cycles:   82426800 heartbeat IPC: 0.24542 cumulative IPC: 0.24438 (Simulation time: 0 hr 5 min 6 sec) 
Heartbeat CPU  0 instructions:  112000000 cycles:   86498973 heartbeat IPC: 0.24557 cumulative IPC: 0.24448 (Simulation time: 0 hr 5 min 11 sec) 
Heartbeat CPU  0 instructions:  113000002 cycles:   90714156 heartbeat IPC: 0.23724 cumulative IPC: 0.24391 (Simulation time: 0 hr 5 min 15 sec) 
Heartbeat CPU  0 instructions:  114000001 cycles:   94802260 heartbeat IPC: 0.24461 cumulative IPC: 0.24396 (Simulation time: 0 hr 5 min 20 sec) 
Heartbeat CPU  0 instructions:  115000000 cycles:   99003762 heartbeat IPC: 0.23801 cumulative IPC: 0.24355 (Simulation time: 0 hr 5 min 24 sec) 
Heartbeat CPU  0 instructions:  116000000 cycles:  103083087 heartbeat IPC: 0.24514 cumulative IPC: 0.24365 (Simulation time: 0 hr 5 min 28 sec) 
Heartbeat CPU  0 instructions:  117000001 cycles:  107164865 heartbeat IPC: 0.24499 cumulative IPC: 0.24373 (Simulation time: 0 hr 5 min 33 sec) 
Heartbeat CPU  0 instructions:  118000002 cycles:  111378219 heartbeat IPC: 0.23734 cumulative IPC: 0.24337 (Simulation time: 0 hr 5 min 37 sec) 
Heartbeat CPU  0 instructions:  119000000 cycles:  115451169 heartbeat IPC: 0.24552 cumulative IPC: 0.24348 (Simulation time: 0 hr 5 min 41 sec) 
Heartbeat CPU  0 instructions:  120000000 cycles:  119512775 heartbeat IPC: 0.24621 cumulative IPC: 0.24361 (Simulation time: 0 hr 5 min 46 sec) 
Heartbeat CPU  0 instructions:  121000003 cycles:  123591175 heartbeat IPC: 0.24519 cumulative IPC: 0.24369 (Simulation time: 0 hr 5 min 50 sec) 
Heartbeat CPU  0 instructions:  122000002 cycles:  127690277 heartbeat IPC: 0.24396 cumulative IPC: 0.24370 (Simulation time: 0 hr 5 min 55 sec) 
Heartbeat CPU  0 instructions:  123000003 cycles:  131789389 heartbeat IPC: 0.24396 cumulative IPC: 0.24371 (Simulation time: 0 hr 5 min 59 sec) 
Heartbeat CPU  0 instructions:  124000000 cycles:  135878089 heartbeat IPC: 0.24458 cumulative IPC: 0.24375 (Simulation time: 0 hr 6 min 3 sec) 
Heartbeat CPU  0 instructions:  125000001 cycles:  139985967 heartbeat IPC: 0.24343 cumulative IPC: 0.24374 (Simulation time: 0 hr 6 min 8 sec) 
Heartbeat CPU  0 instructions:  126000000 cycles:  144087165 heartbeat IPC: 0.24383 cumulative IPC: 0.24374 (Simulation time: 0 hr 6 min 12 sec) 
Heartbeat CPU  0 instructions:  127000003 cycles:  148187733 heartbeat IPC: 0.24387 cumulative IPC: 0.24374 (Simulation time: 0 hr 6 min 17 sec) 
Heartbeat CPU  0 instructions:  128000000 cycles:  152286991 heartbeat IPC: 0.24395 cumulative IPC: 0.24375 (Simulation time: 0 hr 6 min 21 sec) 
Heartbeat CPU  0 instructions:  129000001 cycles:  156395333 heartbeat IPC: 0.24341 cumulative IPC: 0.24374 (Simulation time: 0 hr 6 min 26 sec) 
Heartbeat CPU  0 instructions:  130000002 cycles:  160652775 heartbeat IPC: 0.23488 cumulative IPC: 0.24343 (Simulation time: 0 hr 6 min 30 sec) 
Heartbeat CPU  0 instructions:  131000001 cycles:  164719181 heartbeat IPC: 0.24592 cumulative IPC: 0.24351 (Simulation time: 0 hr 6 min 35 sec) 
Heartbeat CPU  0 instructions:  132000000 cycles:  168792811 heartbeat IPC: 0.24548 cumulative IPC: 0.24357 (Simulation time: 0 hr 6 min 39 sec) 
Heartbeat CPU  0 instructions:  133000003 cycles:  172874940 heartbeat IPC: 0.24497 cumulative IPC: 0.24362 (Simulation time: 0 hr 6 min 44 sec) 
Heartbeat CPU  0 instructions:  134000000 cycles:  176968659 heartbeat IPC: 0.24428 cumulative IPC: 0.24364 (Simulation time: 0 hr 6 min 48 sec) 
Heartbeat CPU  0 instructions:  135000001 cycles:  181055966 heartbeat IPC: 0.24466 cumulative IPC: 0.24366 (Simulation time: 0 hr 6 min 52 sec) 
Heartbeat CPU  0 instructions:  136000000 cycles:  185293518 heartbeat IPC: 0.23599 cumulative IPC: 0.24344 (Simulation time: 0 hr 6 min 57 sec) 
Heartbeat CPU  0 instructions:  137000000 cycles:  189360985 heartbeat IPC: 0.24585 cumulative IPC: 0.24351 (Simulation time: 0 hr 7 min 1 sec) 
Heartbeat CPU  0 instructions:  138000000 cycles:  193595374 heartbeat IPC: 0.23616 cumulative IPC: 0.24331 (Simulation time: 0 hr 7 min 6 sec) 
Heartbeat CPU  0 instructions:  139000000 cycles:  197704438 heartbeat IPC: 0.24336 cumulative IPC: 0.24331 (Simulation time: 0 hr 7 min 11 sec) 
Heartbeat CPU  0 instructions:  140000000 cycles:  201931190 heartbeat IPC: 0.23659 cumulative IPC: 0.24314 (Simulation time: 0 hr 7 min 15 sec) 
Heartbeat CPU  0 instructions:  141000002 cycles:  206006819 heartbeat IPC: 0.24536 cumulative IPC: 0.24319 (Simulation time: 0 hr 7 min 20 sec) 
Heartbeat CPU  0 instructions:  142000002 cycles:  210085047 heartbeat IPC: 0.24520 cumulative IPC: 0.24324 (Simulation time: 0 hr 7 min 24 sec) 
Heartbeat CPU  0 instructions:  143000003 cycles:  214321520 heartbeat IPC: 0.23605 cumulative IPC: 0.24307 (Simulation time: 0 hr 7 min 29 sec) 
Heartbeat CPU  0 instructions:  144000000 cycles:  218390384 heartbeat IPC: 0.24577 cumulative IPC: 0.24313 (Simulation time: 0 hr 7 min 34 sec) 
Heartbeat CPU  0 instructions:  145000001 cycles:  222476011 heartbeat IPC: 0.24476 cumulative IPC: 0.24316 (Simulation time: 0 hr 7 min 38 sec) 
Heartbeat CPU  0 instructions:  146000000 cycles:  226566544 heartbeat IPC: 0.24447 cumulative IPC: 0.24319 (Simulation time: 0 hr 7 min 42 sec) 
Heartbeat CPU  0 instructions:  147000003 cycles:  230816537 heartbeat IPC: 0.23530 cumulative IPC: 0.24302 (Simulation time: 0 hr 7 min 47 sec) 
Heartbeat CPU  0 instructions:  148000000 cycles:  234920657 heartbeat IPC: 0.24366 cumulative IPC: 0.24303 (Simulation time: 0 hr 7 min 51 sec) 
Heartbeat CPU  0 instructions:  149000001 cycles:  239031538 heartbeat IPC: 0.24326 cumulative IPC: 0.24304 (Simulation time: 0 hr 7 min 56 sec) 
Heartbeat CPU  0 instructions:  150000000 cycles:  243136841 heartbeat IPC: 0.24359 cumulative IPC: 0.24305 (Simulation time: 0 hr 8 min 0 sec) 
Heartbeat CPU  0 instructions:  151000003 cycles:  247270878 heartbeat IPC: 0.24190 cumulative IPC: 0.24302 (Simulation time: 0 hr 8 min 5 sec) 
Heartbeat CPU  0 instructions:  152000000 cycles:  251406329 heartbeat IPC: 0.24181 cumulative IPC: 0.24300 (Simulation time: 0 hr 8 min 9 sec) 
Heartbeat CPU  0 instructions:  153000001 cycles:  255560467 heartbeat IPC: 0.24072 cumulative IPC: 0.24296 (Simulation time: 0 hr 8 min 13 sec) 
Heartbeat CPU  0 instructions:  154000003 cycles:  259726587 heartbeat IPC: 0.24003 cumulative IPC: 0.24290 (Simulation time: 0 hr 8 min 18 sec) 
Heartbeat CPU  0 instructions:  155000001 cycles:  263874970 heartbeat IPC: 0.24106 cumulative IPC: 0.24287 (Simulation time: 0 hr 8 min 22 sec) 
Heartbeat CPU  0 instructions:  156000000 cycles:  268051221 heartbeat IPC: 0.23945 cumulative IPC: 0.24281 (Simulation time: 0 hr 8 min 27 sec) 
Heartbeat CPU  0 instructions:  157000003 cycles:  272232573 heartbeat IPC: 0.23916 cumulative IPC: 0.24274 (Simulation time: 0 hr 8 min 31 sec) 
Heartbeat CPU  0 instructions:  158000000 cycles:  276428806 heartbeat IPC: 0.23831 cumulative IPC: 0.24266 (Simulation time: 0 hr 8 min 35 sec) 
Heartbeat CPU  0 instructions:  159000000 cycles:  280625595 heartbeat IPC: 0.23828 cumulative IPC: 0.24259 (Simulation time: 0 hr 8 min 40 sec) 
Heartbeat CPU  0 instructions:  160000000 cycles:  284830823 heartbeat IPC: 0.23780 cumulative IPC: 0.24251 (Simulation time: 0 hr 8 min 44 sec) 
Heartbeat CPU  0 instructions:  161000003 cycles:  289028484 heartbeat IPC: 0.23823 cumulative IPC: 0.24244 (Simulation time: 0 hr 8 min 48 sec) 
Heartbeat CPU  0 instructions:  162000002 cycles:  293247341 heartbeat IPC: 0.23703 cumulative IPC: 0.24235 (Simulation time: 0 hr 8 min 53 sec) 
Heartbeat CPU  0 instructions:  163000001 cycles:  297454892 heartbeat IPC: 0.23767 cumulative IPC: 0.24227 (Simulation time: 0 hr 8 min 57 sec) 
Heartbeat CPU  0 instructions:  164000000 cycles:  301674711 heartbeat IPC: 0.23698 cumulative IPC: 0.24219 (Simulation time: 0 hr 9 min 2 sec) 
Heartbeat CPU  0 instructions:  165000001 cycles:  305895580 heartbeat IPC: 0.23692 cumulative IPC: 0.24210 (Simulation time: 0 hr 9 min 6 sec) 
Heartbeat CPU  0 instructions:  166000001 cycles:  310118153 heartbeat IPC: 0.23682 cumulative IPC: 0.24202 (Simulation time: 0 hr 9 min 10 sec) 
Heartbeat CPU  0 instructions:  167000000 cycles:  314340513 heartbeat IPC: 0.23683 cumulative IPC: 0.24194 (Simulation time: 0 hr 9 min 15 sec) 
Heartbeat CPU  0 instructions:  168000000 cycles:  318575259 heartbeat IPC: 0.23614 cumulative IPC: 0.24186 (Simulation time: 0 hr 9 min 19 sec) 
Heartbeat CPU  0 instructions:  169000002 cycles:  322969934 heartbeat IPC: 0.22755 cumulative IPC: 0.24164 (Simulation time: 0 hr 9 min 24 sec) 
Heartbeat CPU  0 instructions:  170000002 cycles:  327195841 heartbeat IPC: 0.23664 cumulative IPC: 0.24156 (Simulation time: 0 hr 9 min 28 sec) 
Heartbeat CPU  0 instructions:  171000000 cycles:  331419339 heartbeat IPC: 0.23677 cumulative IPC: 0.24149 (Simulation time: 0 hr 9 min 32 sec) 
Heartbeat CPU  0 instructions:  172000000 cycles:  335651438 heartbeat IPC: 0.23629 cumulative IPC: 0.24142 (Simulation time: 0 hr 9 min 37 sec) 
Heartbeat CPU  0 instructions:  173000002 cycles:  339901430 heartbeat IPC: 0.23530 cumulative IPC: 0.24133 (Simulation time: 0 hr 9 min 41 sec) 
Heartbeat CPU  0 instructions:  174000002 cycles:  344137188 heartbeat IPC: 0.23609 cumulative IPC: 0.24126 (Simulation time: 0 hr 9 min 46 sec) 
Heartbeat CPU  0 instructions:  175000001 cycles:  348386735 heartbeat IPC: 0.23532 cumulative IPC: 0.24118 (Simulation time: 0 hr 9 min 50 sec) 
Heartbeat CPU  0 instructions:  176000000 cycles:  352626980 heartbeat IPC: 0.23584 cumulative IPC: 0.24111 (Simulation time: 0 hr 9 min 54 sec) 
Heartbeat CPU  0 instructions:  177000002 cycles:  356865949 heartbeat IPC: 0.23591 cumulative IPC: 0.24104 (Simulation time: 0 hr 9 min 59 sec) 
Heartbeat CPU  0 instructions:  178000003 cycles:  361119606 heartbeat IPC: 0.23509 cumulative IPC: 0.24096 (Simulation time: 0 hr 10 min 3 sec) 
Heartbeat CPU  0 instructions:  179000002 cycles:  365375477 heartbeat IPC: 0.23497 cumulative IPC: 0.24088 (Simulation time: 0 hr 10 min 7 sec) 
Heartbeat CPU  0 instructions:  180000000 cycles:  369641737 heartbeat IPC: 0.23440 cumulative IPC: 0.24080 (Simulation time: 0 hr 10 min 12 sec) 
Heartbeat CPU  0 instructions:  181000000 cycles:  373896840 heartbeat IPC: 0.23501 cumulative IPC: 0.24073 (Simulation time: 0 hr 10 min 16 sec) 
Heartbeat CPU  0 instructions:  182000003 cycles:  378154360 heartbeat IPC: 0.23488 cumulative IPC: 0.24065 (Simulation time: 0 hr 10 min 21 sec) 
Heartbeat CPU  0 instructions:  183000002 cycles:  382412304 heartbeat IPC: 0.23485 cumulative IPC: 0.24058 (Simulation time: 0 hr 10 min 25 sec) 
Heartbeat CPU  0 instructions:  184000000 cycles:  386678909 heartbeat IPC: 0.23438 cumulative IPC: 0.24051 (Simulation time: 0 hr 10 min 29 sec) 
Heartbeat CPU  0 instructions:  185000000 cycles:  390945308 heartbeat IPC: 0.23439 cumulative IPC: 0.24043 (Simulation time: 0 hr 10 min 34 sec) 
Heartbeat CPU  0 instructions:  186000003 cycles:  395207160 heartbeat IPC: 0.23464 cumulative IPC: 0.24036 (Simulation time: 0 hr 10 min 38 sec) 
Heartbeat CPU  0 instructions:  187000002 cycles:  399460885 heartbeat IPC: 0.23509 cumulative IPC: 0.24030 (Simulation time: 0 hr 10 min 43 sec) 
Heartbeat CPU  0 instructions:  188000000 cycles:  403724737 heartbeat IPC: 0.23453 cumulative IPC: 0.24023 (Simulation time: 0 hr 10 min 47 sec) 
Heartbeat CPU  0 instructions:  189000000 cycles:  407984769 heartbeat IPC: 0.23474 cumulative IPC: 0.24017 (Simulation time: 0 hr 10 min 51 sec) 
Heartbeat CPU  0 instructions:  190000003 cycles:  412255365 heartbeat IPC: 0.23416 cumulative IPC: 0.24010 (Simulation time: 0 hr 10 min 56 sec) 
Heartbeat CPU  0 instructions:  191000001 cycles:  416537969 heartbeat IPC: 0.23350 cumulative IPC: 0.24003 (Simulation time: 0 hr 11 min 0 sec) 
Heartbeat CPU  0 instructions:  192000000 cycles:  420814998 heartbeat IPC: 0.23381 cumulative IPC: 0.23996 (Simulation time: 0 hr 11 min 4 sec) 
Heartbeat CPU  0 instructions:  193000002 cycles:  425088577 heartbeat IPC: 0.23400 cumulative IPC: 0.23989 (Simulation time: 0 hr 11 min 9 sec) 
Heartbeat CPU  0 instructions:  194000001 cycles:  429460228 heartbeat IPC: 0.22875 cumulative IPC: 0.23977 (Simulation time: 0 hr 11 min 13 sec) 
Heartbeat CPU  0 instructions:  195000002 cycles:  433720909 heartbeat IPC: 0.23470 cumulative IPC: 0.23971 (Simulation time: 0 hr 11 min 18 sec) 
Heartbeat CPU  0 instructions:  196000000 cycles:  437976480 heartbeat IPC: 0.23499 cumulative IPC: 0.23966 (Simulation time: 0 hr 11 min 22 sec) 
Heartbeat CPU  0 instructions:  197000002 cycles:  442238344 heartbeat IPC: 0.23464 cumulative IPC: 0.23961 (Simulation time: 0 hr 11 min 26 sec) 
Heartbeat CPU  0 instructions:  198000002 cycles:  446502548 heartbeat IPC: 0.23451 cumulative IPC: 0.23956 (Simulation time: 0 hr 11 min 31 sec) 
Heartbeat CPU  0 instructions:  199000000 cycles:  450771619 heartbeat IPC: 0.23424 cumulative IPC: 0.23950 (Simulation time: 0 hr 11 min 35 sec) 
Heartbeat CPU  0 instructions:  200000000 cycles:  455027285 heartbeat IPC: 0.23498 cumulative IPC: 0.23946 (Simulation time: 0 hr 11 min 40 sec) 
Heartbeat CPU  0 instructions:  201000002 cycles:  459288041 heartbeat IPC: 0.23470 cumulative IPC: 0.23941 (Simulation time: 0 hr 11 min 44 sec) 
Heartbeat CPU  0 instructions:  202000002 cycles:  463551905 heartbeat IPC: 0.23453 cumulative IPC: 0.23936 (Simulation time: 0 hr 11 min 48 sec) 
Heartbeat CPU  0 instructions:  203000000 cycles:  467822413 heartbeat IPC: 0.23416 cumulative IPC: 0.23931 (Simulation time: 0 hr 11 min 53 sec) 
Heartbeat CPU  0 instructions:  204000000 cycles:  472091467 heartbeat IPC: 0.23424 cumulative IPC: 0.23926 (Simulation time: 0 hr 11 min 57 sec) 
Heartbeat CPU  0 instructions:  205000000 cycles:  476347957 heartbeat IPC: 0.23494 cumulative IPC: 0.23922 (Simulation time: 0 hr 12 min 1 sec) 
Heartbeat CPU  0 instructions:  206000001 cycles:  480617033 heartbeat IPC: 0.23424 cumulative IPC: 0.23917 (Simulation time: 0 hr 12 min 6 sec) 
Heartbeat CPU  0 instructions:  207000001 cycles:  484893899 heartbeat IPC: 0.23382 cumulative IPC: 0.23912 (Simulation time: 0 hr 12 min 10 sec) 
Heartbeat CPU  0 instructions:  208000000 cycles:  489173583 heartbeat IPC: 0.23366 cumulative IPC: 0.23907 (Simulation time: 0 hr 12 min 15 sec) 
Heartbeat CPU  0 instructions:  209000000 cycles:  493439954 heartbeat IPC: 0.23439 cumulative IPC: 0.23902 (Simulation time: 0 hr 12 min 19 sec) 
Heartbeat CPU  0 instructions:  210000003 cycles:  497710943 heartbeat IPC: 0.23414 cumulative IPC: 0.23898 (Simulation time: 0 hr 12 min 24 sec) 
Heartbeat CPU  0 instructions:  211000001 cycles:  501968064 heartbeat IPC: 0.23490 cumulative IPC: 0.23894 (Simulation time: 0 hr 12 min 28 sec) 
Heartbeat CPU  0 instructions:  212000000 cycles:  506235831 heartbeat IPC: 0.23431 cumulative IPC: 0.23890 (Simulation time: 0 hr 12 min 32 sec) 
Heartbeat CPU  0 instructions:  213000002 cycles:  510498037 heartbeat IPC: 0.23462 cumulative IPC: 0.23886 (Simulation time: 0 hr 12 min 37 sec) 
Heartbeat CPU  0 instructions:  214000001 cycles:  514767323 heartbeat IPC: 0.23423 cumulative IPC: 0.23882 (Simulation time: 0 hr 12 min 41 sec) 
Heartbeat CPU  0 instructions:  215000002 cycles:  519032872 heartbeat IPC: 0.23444 cumulative IPC: 0.23878 (Simulation time: 0 hr 12 min 46 sec) 
Heartbeat CPU  0 instructions:  216000000 cycles:  523293160 heartbeat IPC: 0.23473 cumulative IPC: 0.23874 (Simulation time: 0 hr 12 min 50 sec) 
Heartbeat CPU  0 instructions:  217000000 cycles:  527572849 heartbeat IPC: 0.23366 cumulative IPC: 0.23870 (Simulation time: 0 hr 12 min 54 sec) 
Heartbeat CPU  0 instructions:  218000000 cycles:  531839442 heartbeat IPC: 0.23438 cumulative IPC: 0.23866 (Simulation time: 0 hr 12 min 59 sec) 
Heartbeat CPU  0 instructions:  219000001 cycles:  536105766 heartbeat IPC: 0.23439 cumulative IPC: 0.23863 (Simulation time: 0 hr 13 min 3 sec) 
Heartbeat CPU  0 instructions:  220000000 cycles:  540376402 heartbeat IPC: 0.23416 cumulative IPC: 0.23859 (Simulation time: 0 hr 13 min 8 sec) 
Heartbeat CPU  0 instructions:  221000000 cycles:  544639519 heartbeat IPC: 0.23457 cumulative IPC: 0.23855 (Simulation time: 0 hr 13 min 12 sec) 
Heartbeat CPU  0 instructions:  222000001 cycles:  548901720 heartbeat IPC: 0.23462 cumulative IPC: 0.23852 (Simulation time: 0 hr 13 min 16 sec) 
Heartbeat CPU  0 instructions:  223000000 cycles:  553168132 heartbeat IPC: 0.23439 cumulative IPC: 0.23849 (Simulation time: 0 hr 13 min 21 sec) 
Heartbeat CPU  0 instructions:  224000000 cycles:  557435429 heartbeat IPC: 0.23434 cumulative IPC: 0.23845 (Simulation time: 0 hr 13 min 25 sec) 
Heartbeat CPU  0 instructions:  225000000 cycles:  561691081 heartbeat IPC: 0.23498 cumulative IPC: 0.23842 (Simulation time: 0 hr 13 min 30 sec) 
Heartbeat CPU  0 instructions:  226000003 cycles:  565954520 heartbeat IPC: 0.23455 cumulative IPC: 0.23839 (Simulation time: 0 hr 13 min 34 sec) 
Heartbeat CPU  0 instructions:  227000002 cycles:  570219676 heartbeat IPC: 0.23446 cumulative IPC: 0.23836 (Simulation time: 0 hr 13 min 38 sec) 
Heartbeat CPU  0 instructions:  228000000 cycles:  574490167 heartbeat IPC: 0.23416 cumulative IPC: 0.23833 (Simulation time: 0 hr 13 min 43 sec) 
Heartbeat CPU  0 instructions:  229000000 cycles:  578765335 heartbeat IPC: 0.23391 cumulative IPC: 0.23829 (Simulation time: 0 hr 13 min 47 sec) 
Heartbeat CPU  0 instructions:  230000002 cycles:  583034121 heartbeat IPC: 0.23426 cumulative IPC: 0.23826 (Simulation time: 0 hr 13 min 52 sec) 
Heartbeat CPU  0 instructions:  231000002 cycles:  587310496 heartbeat IPC: 0.23384 cumulative IPC: 0.23823 (Simulation time: 0 hr 13 min 56 sec) 
Heartbeat CPU  0 instructions:  232000000 cycles:  591592732 heartbeat IPC: 0.23352 cumulative IPC: 0.23819 (Simulation time: 0 hr 14 min 1 sec) 
Heartbeat CPU  0 instructions:  233000000 cycles:  595858090 heartbeat IPC: 0.23445 cumulative IPC: 0.23816 (Simulation time: 0 hr 14 min 5 sec) 
Heartbeat CPU  0 instructions:  234000000 cycles:  600134017 heartbeat IPC: 0.23387 cumulative IPC: 0.23813 (Simulation time: 0 hr 14 min 10 sec) 
Heartbeat CPU  0 instructions:  235000001 cycles:  604411371 heartbeat IPC: 0.23379 cumulative IPC: 0.23810 (Simulation time: 0 hr 14 min 14 sec) 
Heartbeat CPU  0 instructions:  236000000 cycles:  608675859 heartbeat IPC: 0.23449 cumulative IPC: 0.23807 (Simulation time: 0 hr 14 min 19 sec) 
Heartbeat CPU  0 instructions:  237000000 cycles:  612954991 heartbeat IPC: 0.23369 cumulative IPC: 0.23804 (Simulation time: 0 hr 14 min 23 sec) 
Heartbeat CPU  0 instructions:  238000000 cycles:  617223924 heartbeat IPC: 0.23425 cumulative IPC: 0.23801 (Simulation time: 0 hr 14 min 28 sec) 
Heartbeat CPU  0 instructions:  239000002 cycles:  621503095 heartbeat IPC: 0.23369 cumulative IPC: 0.23798 (Simulation time: 0 hr 14 min 32 sec) 
Heartbeat CPU  0 instructions:  240000000 cycles:  625794695 heartbeat IPC: 0.23301 cumulative IPC: 0.23794 (Simulation time: 0 hr 14 min 37 sec) 
Heartbeat CPU  0 instructions:  241000002 cycles:  630063876 heartbeat IPC: 0.23424 cumulative IPC: 0.23792 (Simulation time: 0 hr 14 min 41 sec) 
Heartbeat CPU  0 instructions:  242000003 cycles:  634516455 heartbeat IPC: 0.22459 cumulative IPC: 0.23782 (Simulation time: 0 hr 14 min 46 sec) 
Heartbeat CPU  0 instructions:  243000003 cycles:  638746948 heartbeat IPC: 0.23638 cumulative IPC: 0.23781 (Simulation time: 0 hr 14 min 50 sec) 
Heartbeat CPU  0 instructions:  244000000 cycles:  642995955 heartbeat IPC: 0.23535 cumulative IPC: 0.23779 (Simulation time: 0 hr 14 min 54 sec) 
Heartbeat CPU  0 instructions:  245000001 cycles:  647264661 heartbeat IPC: 0.23426 cumulative IPC: 0.23776 (Simulation time: 0 hr 14 min 59 sec) 
Heartbeat CPU  0 instructions:  246000000 cycles:  651536105 heartbeat IPC: 0.23411 cumulative IPC: 0.23774 (Simulation time: 0 hr 15 min 3 sec) 
Heartbeat CPU  0 instructions:  247000003 cycles:  655822638 heartbeat IPC: 0.23329 cumulative IPC: 0.23771 (Simulation time: 0 hr 15 min 8 sec) 
Heartbeat CPU  0 instructions:  248000000 cycles:  660100799 heartbeat IPC: 0.23374 cumulative IPC: 0.23768 (Simulation time: 0 hr 15 min 12 sec) 
Heartbeat CPU  0 instructions:  249000001 cycles:  664387817 heartbeat IPC: 0.23326 cumulative IPC: 0.23765 (Simulation time: 0 hr 15 min 17 sec) 
Heartbeat CPU  0 instructions:  250000000 cycles:  668664175 heartbeat IPC: 0.23384 cumulative IPC: 0.23762 (Simulation time: 0 hr 15 min 21 sec) 
Heartbeat CPU  0 instructions:  251000003 cycles:  672943532 heartbeat IPC: 0.23368 cumulative IPC: 0.23760 (Simulation time: 0 hr 15 min 26 sec) 
Heartbeat CPU  0 instructions:  252000000 cycles:  677229099 heartbeat IPC: 0.23334 cumulative IPC: 0.23757 (Simulation time: 0 hr 15 min 30 sec) 
Heartbeat CPU  0 instructions:  253000001 cycles:  681640273 heartbeat IPC: 0.22670 cumulative IPC: 0.23749 (Simulation time: 0 hr 15 min 35 sec) 
Heartbeat CPU  0 instructions:  254000003 cycles:  685922978 heartbeat IPC: 0.23350 cumulative IPC: 0.23747 (Simulation time: 0 hr 15 min 39 sec) 
Heartbeat CPU  0 instructions:  255000003 cycles:  690202102 heartbeat IPC: 0.23369 cumulative IPC: 0.23744 (Simulation time: 0 hr 15 min 44 sec) 
Heartbeat CPU  0 instructions:  256000000 cycles:  694494979 heartbeat IPC: 0.23294 cumulative IPC: 0.23741 (Simulation time: 0 hr 15 min 48 sec) 
Heartbeat CPU  0 instructions:  257000001 cycles:  698785395 heartbeat IPC: 0.23308 cumulative IPC: 0.23739 (Simulation time: 0 hr 15 min 53 sec) 
Heartbeat CPU  0 instructions:  258000003 cycles:  703076528 heartbeat IPC: 0.23304 cumulative IPC: 0.23736 (Simulation time: 0 hr 15 min 57 sec) 
Heartbeat CPU  0 instructions:  259000002 cycles:  707503560 heartbeat IPC: 0.22588 cumulative IPC: 0.23728 (Simulation time: 0 hr 16 min 2 sec) 
Heartbeat CPU  0 instructions:  260000000 cycles:  711790842 heartbeat IPC: 0.23325 cumulative IPC: 0.23726 (Simulation time: 0 hr 16 min 6 sec) 
Heartbeat CPU  0 instructions:  261000002 cycles:  716060843 heartbeat IPC: 0.23419 cumulative IPC: 0.23724 (Simulation time: 0 hr 16 min 10 sec) 
Heartbeat CPU  0 instructions:  262000001 cycles:  720334143 heartbeat IPC: 0.23401 cumulative IPC: 0.23722 (Simulation time: 0 hr 16 min 15 sec) 
Heartbeat CPU  0 instructions:  263000001 cycles:  724618587 heartbeat IPC: 0.23340 cumulative IPC: 0.23719 (Simulation time: 0 hr 16 min 19 sec) 
Heartbeat CPU  0 instructions:  264000000 cycles:  728879516 heartbeat IPC: 0.23469 cumulative IPC: 0.23718 (Simulation time: 0 hr 16 min 24 sec) 
Heartbeat CPU  0 instructions:  265000003 cycles:  733159743 heartbeat IPC: 0.23363 cumulative IPC: 0.23716 (Simulation time: 0 hr 16 min 28 sec) 
Heartbeat CPU  0 instructions:  266000002 cycles:  737431646 heartbeat IPC: 0.23409 cumulative IPC: 0.23714 (Simulation time: 0 hr 16 min 33 sec) 
Heartbeat CPU  0 instructions:  267000001 cycles:  741707589 heartbeat IPC: 0.23387 cumulative IPC: 0.23712 (Simulation time: 0 hr 16 min 37 sec) 
Heartbeat CPU  0 instructions:  268000000 cycles:  746121863 heartbeat IPC: 0.22654 cumulative IPC: 0.23705 (Simulation time: 0 hr 16 min 42 sec) 
Heartbeat CPU  0 instructions:  269000002 cycles:  750403363 heartbeat IPC: 0.23356 cumulative IPC: 0.23703 (Simulation time: 0 hr 16 min 46 sec) 
Heartbeat CPU  0 instructions:  270000003 cycles:  754683971 heartbeat IPC: 0.23361 cumulative IPC: 0.23701 (Simulation time: 0 hr 16 min 51 sec) 
Heartbeat CPU  0 instructions:  271000002 cycles:  758963232 heartbeat IPC: 0.23368 cumulative IPC: 0.23699 (Simulation time: 0 hr 16 min 55 sec) 
Heartbeat CPU  0 instructions:  272000000 cycles:  763423942 heartbeat IPC: 0.22418 cumulative IPC: 0.23691 (Simulation time: 0 hr 17 min 0 sec) 
Heartbeat CPU  0 instructions:  273000002 cycles:  767684630 heartbeat IPC: 0.23470 cumulative IPC: 0.23690 (Simulation time: 0 hr 17 min 4 sec) 
Heartbeat CPU  0 instructions:  274000000 cycles:  771942767 heartbeat IPC: 0.23484 cumulative IPC: 0.23689 (Simulation time: 0 hr 17 min 9 sec) 
Heartbeat CPU  0 instructions:  275000003 cycles:  776215080 heartbeat IPC: 0.23407 cumulative IPC: 0.23687 (Simulation time: 0 hr 17 min 13 sec) 
Heartbeat CPU  0 instructions:  276000000 cycles:  780499450 heartbeat IPC: 0.23341 cumulative IPC: 0.23685 (Simulation time: 0 hr 17 min 18 sec) 
Heartbeat CPU  0 instructions:  277000002 cycles:  784782681 heartbeat IPC: 0.23347 cumulative IPC: 0.23683 (Simulation time: 0 hr 17 min 22 sec) 
Heartbeat CPU  0 instructions:  278000001 cycles:  789084024 heartbeat IPC: 0.23249 cumulative IPC: 0.23681 (Simulation time: 0 hr 17 min 27 sec) 
Heartbeat CPU  0 instructions:  279000001 cycles:  793379995 heartbeat IPC: 0.23278 cumulative IPC: 0.23678 (Simulation time: 0 hr 17 min 31 sec) 
Heartbeat CPU  0 instructions:  280000000 cycles:  797667833 heartbeat IPC: 0.23322 cumulative IPC: 0.23676 (Simulation time: 0 hr 17 min 36 sec) 
Heartbeat CPU  0 instructions:  281000002 cycles:  801969342 heartbeat IPC: 0.23248 cumulative IPC: 0.23674 (Simulation time: 0 hr 17 min 40 sec) 
Heartbeat CPU  0 instructions:  282000002 cycles:  806277527 heartbeat IPC: 0.23212 cumulative IPC: 0.23671 (Simulation time: 0 hr 17 min 45 sec) 
Heartbeat CPU  0 instructions:  283000000 cycles:  810583590 heartbeat IPC: 0.23223 cumulative IPC: 0.23669 (Simulation time: 0 hr 17 min 49 sec) 
Heartbeat CPU  0 instructions:  284000000 cycles:  814886412 heartbeat IPC: 0.23241 cumulative IPC: 0.23666 (Simulation time: 0 hr 17 min 53 sec) 
Heartbeat CPU  0 instructions:  285000000 cycles:  819192395 heartbeat IPC: 0.23224 cumulative IPC: 0.23664 (Simulation time: 0 hr 17 min 58 sec) 
Heartbeat CPU  0 instructions:  286000003 cycles:  823513903 heartbeat IPC: 0.23140 cumulative IPC: 0.23661 (Simulation time: 0 hr 18 min 2 sec) 
Heartbeat CPU  0 instructions:  287000000 cycles:  827827472 heartbeat IPC: 0.23183 cumulative IPC: 0.23659 (Simulation time: 0 hr 18 min 7 sec) 
Heartbeat CPU  0 instructions:  288000000 cycles:  832149400 heartbeat IPC: 0.23138 cumulative IPC: 0.23656 (Simulation time: 0 hr 18 min 11 sec) 
Heartbeat CPU  0 instructions:  289000001 cycles:  836461230 heartbeat IPC: 0.23192 cumulative IPC: 0.23653 (Simulation time: 0 hr 18 min 16 sec) 
Heartbeat CPU  0 instructions:  290000000 cycles:  840764272 heartbeat IPC: 0.23239 cumulative IPC: 0.23651 (Simulation time: 0 hr 18 min 21 sec) 
Heartbeat CPU  0 instructions:  291000001 cycles:  845071400 heartbeat IPC: 0.23217 cumulative IPC: 0.23649 (Simulation time: 0 hr 18 min 25 sec) 
Heartbeat CPU  0 instructions:  292000000 cycles:  849379602 heartbeat IPC: 0.23212 cumulative IPC: 0.23646 (Simulation time: 0 hr 18 min 29 sec) 
Heartbeat CPU  0 instructions:  293000001 cycles:  853676297 heartbeat IPC: 0.23274 cumulative IPC: 0.23644 (Simulation time: 0 hr 18 min 34 sec) 
Heartbeat CPU  0 instructions:  294000000 cycles:  858063139 heartbeat IPC: 0.22795 cumulative IPC: 0.23640 (Simulation time: 0 hr 18 min 39 sec) 
Heartbeat CPU  0 instructions:  295000003 cycles:  862365009 heartbeat IPC: 0.23246 cumulative IPC: 0.23638 (Simulation time: 0 hr 18 min 43 sec) 
Heartbeat CPU  0 instructions:  296000000 cycles:  866670190 heartbeat IPC: 0.23228 cumulative IPC: 0.23636 (Simulation time: 0 hr 18 min 48 sec) 
Heartbeat CPU  0 instructions:  297000001 cycles:  870972248 heartbeat IPC: 0.23245 cumulative IPC: 0.23634 (Simulation time: 0 hr 18 min 52 sec) 
Heartbeat CPU  0 instructions:  298000002 cycles:  875280375 heartbeat IPC: 0.23212 cumulative IPC: 0.23632 (Simulation time: 0 hr 18 min 57 sec) 
Heartbeat CPU  0 instructions:  299000001 cycles:  879589377 heartbeat IPC: 0.23207 cumulative IPC: 0.23629 (Simulation time: 0 hr 19 min 1 sec) 
Heartbeat CPU  0 instructions:  300000000 cycles:  883919896 heartbeat IPC: 0.23092 cumulative IPC: 0.23627 (Simulation time: 0 hr 19 min 6 sec) 
Heartbeat CPU  0 instructions:  301000002 cycles:  888237949 heartbeat IPC: 0.23159 cumulative IPC: 0.23624 (Simulation time: 0 hr 19 min 10 sec) 
Heartbeat CPU  0 instructions:  302000002 cycles:  892536411 heartbeat IPC: 0.23264 cumulative IPC: 0.23622 (Simulation time: 0 hr 19 min 15 sec) 
Heartbeat CPU  0 instructions:  303000001 cycles:  896838358 heartbeat IPC: 0.23245 cumulative IPC: 0.23621 (Simulation time: 0 hr 19 min 19 sec) 
Heartbeat CPU  0 instructions:  304000000 cycles:  901155915 heartbeat IPC: 0.23161 cumulative IPC: 0.23618 (Simulation time: 0 hr 19 min 24 sec) 
Heartbeat CPU  0 instructions:  305000000 cycles:  905458057 heartbeat IPC: 0.23244 cumulative IPC: 0.23616 (Simulation time: 0 hr 19 min 29 sec) 
Heartbeat CPU  0 instructions:  306000000 cycles:  909758760 heartbeat IPC: 0.23252 cumulative IPC: 0.23615 (Simulation time: 0 hr 19 min 33 sec) 
Heartbeat CPU  0 instructions:  307000002 cycles:  914071960 heartbeat IPC: 0.23185 cumulative IPC: 0.23612 (Simulation time: 0 hr 19 min 37 sec) 
Heartbeat CPU  0 instructions:  308000000 cycles:  918376875 heartbeat IPC: 0.23229 cumulative IPC: 0.23611 (Simulation time: 0 hr 19 min 42 sec) 
Heartbeat CPU  0 instructions:  309000002 cycles:  922681641 heartbeat IPC: 0.23230 cumulative IPC: 0.23609 (Simulation time: 0 hr 19 min 46 sec) 
Heartbeat CPU  0 instructions:  310000002 cycles:  927001143 heartbeat IPC: 0.23151 cumulative IPC: 0.23607 (Simulation time: 0 hr 19 min 51 sec) 
Heartbeat CPU  0 instructions:  311000000 cycles:  931314015 heartbeat IPC: 0.23186 cumulative IPC: 0.23604 (Simulation time: 0 hr 19 min 56 sec) 
Heartbeat CPU  0 instructions:  312000000 cycles:  935627380 heartbeat IPC: 0.23184 cumulative IPC: 0.23602 (Simulation time: 0 hr 20 min 0 sec) 
Heartbeat CPU  0 instructions:  313000000 cycles:  939933312 heartbeat IPC: 0.23224 cumulative IPC: 0.23601 (Simulation time: 0 hr 20 min 5 sec) 
Heartbeat CPU  0 instructions:  314000000 cycles:  944234873 heartbeat IPC: 0.23247 cumulative IPC: 0.23599 (Simulation time: 0 hr 20 min 9 sec) 
Heartbeat CPU  0 instructions:  315000001 cycles:  948532880 heartbeat IPC: 0.23267 cumulative IPC: 0.23597 (Simulation time: 0 hr 20 min 14 sec) 
Heartbeat CPU  0 instructions:  316000000 cycles:  952828633 heartbeat IPC: 0.23279 cumulative IPC: 0.23596 (Simulation time: 0 hr 20 min 18 sec) 
Heartbeat CPU  0 instructions:  317000003 cycles:  957137214 heartbeat IPC: 0.23210 cumulative IPC: 0.23594 (Simulation time: 0 hr 20 min 23 sec) 
Heartbeat CPU  0 instructions:  318000002 cycles:  961445838 heartbeat IPC: 0.23209 cumulative IPC: 0.23592 (Simulation time: 0 hr 20 min 27 sec) 
Heartbeat CPU  0 instructions:  319000001 cycles:  965745069 heartbeat IPC: 0.23260 cumulative IPC: 0.23591 (Simulation time: 0 hr 20 min 32 sec) 
Heartbeat CPU  0 instructions:  320000000 cycles:  970043421 heartbeat IPC: 0.23265 cumulative IPC: 0.23589 (Simulation time: 0 hr 20 min 36 sec) 
Heartbeat CPU  0 instructions:  321000000 cycles:  974362821 heartbeat IPC: 0.23151 cumulative IPC: 0.23587 (Simulation time: 0 hr 20 min 41 sec) 
Heartbeat CPU  0 instructions:  322000001 cycles:  978677951 heartbeat IPC: 0.23174 cumulative IPC: 0.23585 (Simulation time: 0 hr 20 min 45 sec) 
Heartbeat CPU  0 instructions:  323000002 cycles:  982987943 heartbeat IPC: 0.23202 cumulative IPC: 0.23584 (Simulation time: 0 hr 20 min 50 sec) 
Heartbeat CPU  0 instructions:  324000000 cycles:  987287675 heartbeat IPC: 0.23257 cumulative IPC: 0.23582 (Simulation time: 0 hr 20 min 54 sec) 
Heartbeat CPU  0 instructions:  325000000 cycles:  991622057 heartbeat IPC: 0.23071 cumulative IPC: 0.23580 (Simulation time: 0 hr 20 min 59 sec) 
Heartbeat CPU  0 instructions:  326000002 cycles:  995948888 heartbeat IPC: 0.23112 cumulative IPC: 0.23578 (Simulation time: 0 hr 21 min 4 sec) 
Heartbeat CPU  0 instructions:  327000003 cycles: 1000268283 heartbeat IPC: 0.23151 cumulative IPC: 0.23576 (Simulation time: 0 hr 21 min 8 sec) 
Heartbeat CPU  0 instructions:  328000000 cycles: 1004583907 heartbeat IPC: 0.23172 cumulative IPC: 0.23574 (Simulation time: 0 hr 21 min 13 sec) 
Heartbeat CPU  0 instructions:  329000000 cycles: 1008906854 heartbeat IPC: 0.23132 cumulative IPC: 0.23572 (Simulation time: 0 hr 21 min 17 sec) 
Heartbeat CPU  0 instructions:  330000000 cycles: 1013224724 heartbeat IPC: 0.23160 cumulative IPC: 0.23570 (Simulation time: 0 hr 21 min 22 sec) 
Heartbeat CPU  0 instructions:  331000002 cycles: 1017542348 heartbeat IPC: 0.23161 cumulative IPC: 0.23568 (Simulation time: 0 hr 21 min 26 sec) 
Heartbeat CPU  0 instructions:  332000000 cycles: 1021865526 heartbeat IPC: 0.23131 cumulative IPC: 0.23566 (Simulation time: 0 hr 21 min 31 sec) 
Heartbeat CPU  0 instructions:  333000000 cycles: 1026183394 heartbeat IPC: 0.23160 cumulative IPC: 0.23565 (Simulation time: 0 hr 21 min 35 sec) 
Heartbeat CPU  0 instructions:  334000003 cycles: 1030492700 heartbeat IPC: 0.23206 cumulative IPC: 0.23563 (Simulation time: 0 hr 21 min 40 sec) 
Heartbeat CPU  0 instructions:  335000001 cycles: 1034802407 heartbeat IPC: 0.23203 cumulative IPC: 0.23562 (Simulation time: 0 hr 21 min 45 sec) 
Heartbeat CPU  0 instructions:  336000000 cycles: 1039124348 heartbeat IPC: 0.23138 cumulative IPC: 0.23560 (Simulation time: 0 hr 21 min 49 sec) 
Heartbeat CPU  0 instructions:  337000003 cycles: 1043451761 heartbeat IPC: 0.23109 cumulative IPC: 0.23558 (Simulation time: 0 hr 21 min 54 sec) 
Heartbeat CPU  0 instructions:  338000000 cycles: 1047786549 heartbeat IPC: 0.23069 cumulative IPC: 0.23556 (Simulation time: 0 hr 21 min 58 sec) 
Heartbeat CPU  0 instructions:  339000003 cycles: 1052113993 heartbeat IPC: 0.23108 cumulative IPC: 0.23554 (Simulation time: 0 hr 22 min 3 sec) 
Heartbeat CPU  0 instructions:  340000000 cycles: 1056416787 heartbeat IPC: 0.23241 cumulative IPC: 0.23552 (Simulation time: 0 hr 22 min 7 sec) 
Heartbeat CPU  0 instructions:  341000001 cycles: 1060727973 heartbeat IPC: 0.23195 cumulative IPC: 0.23551 (Simulation time: 0 hr 22 min 12 sec) 
Heartbeat CPU  0 instructions:  342000003 cycles: 1065044697 heartbeat IPC: 0.23166 cumulative IPC: 0.23549 (Simulation time: 0 hr 22 min 16 sec) 
Heartbeat CPU  0 instructions:  343000002 cycles: 1069370043 heartbeat IPC: 0.23120 cumulative IPC: 0.23548 (Simulation time: 0 hr 22 min 21 sec) 
Heartbeat CPU  0 instructions:  344000000 cycles: 1073693383 heartbeat IPC: 0.23130 cumulative IPC: 0.23546 (Simulation time: 0 hr 22 min 25 sec) 
Heartbeat CPU  0 instructions:  345000002 cycles: 1077985904 heartbeat IPC: 0.23296 cumulative IPC: 0.23545 (Simulation time: 0 hr 22 min 30 sec) 
Heartbeat CPU  0 instructions:  346000003 cycles: 1082297905 heartbeat IPC: 0.23191 cumulative IPC: 0.23543 (Simulation time: 0 hr 22 min 34 sec) 
Heartbeat CPU  0 instructions:  347000002 cycles: 1086608514 heartbeat IPC: 0.23199 cumulative IPC: 0.23542 (Simulation time: 0 hr 22 min 39 sec) 
Heartbeat CPU  0 instructions:  348000000 cycles: 1091120575 heartbeat IPC: 0.22163 cumulative IPC: 0.23536 (Simulation time: 0 hr 22 min 44 sec) 
Heartbeat CPU  0 instructions:  349000003 cycles: 1095426575 heartbeat IPC: 0.23223 cumulative IPC: 0.23535 (Simulation time: 0 hr 22 min 48 sec) 
Heartbeat CPU  0 instructions:  350000000 cycles: 1099739045 heartbeat IPC: 0.23188 cumulative IPC: 0.23533 (Simulation time: 0 hr 22 min 53 sec) 
Heartbeat CPU  0 instructions:  351000000 cycles: 1104044378 heartbeat IPC: 0.23227 cumulative IPC: 0.23532 (Simulation time: 0 hr 22 min 57 sec) 
Heartbeat CPU  0 instructions:  352000000 cycles: 1108349121 heartbeat IPC: 0.23230 cumulative IPC: 0.23531 (Simulation time: 0 hr 23 min 2 sec) 
Heartbeat CPU  0 instructions:  353000002 cycles: 1112671334 heartbeat IPC: 0.23136 cumulative IPC: 0.23529 (Simulation time: 0 hr 23 min 7 sec) 
Heartbeat CPU  0 instructions:  354000000 cycles: 1116980267 heartbeat IPC: 0.23208 cumulative IPC: 0.23528 (Simulation time: 0 hr 23 min 11 sec) 
Heartbeat CPU  0 instructions:  355000000 cycles: 1121298333 heartbeat IPC: 0.23159 cumulative IPC: 0.23527 (Simulation time: 0 hr 23 min 16 sec) 
Heartbeat CPU  0 instructions:  356000000 cycles: 1125611672 heartbeat IPC: 0.23184 cumulative IPC: 0.23525 (Simulation time: 0 hr 23 min 20 sec) 
Heartbeat CPU  0 instructions:  357000002 cycles: 1129932302 heartbeat IPC: 0.23145 cumulative IPC: 0.23524 (Simulation time: 0 hr 23 min 25 sec) 
Heartbeat CPU  0 instructions:  358000002 cycles: 1134244397 heartbeat IPC: 0.23191 cumulative IPC: 0.23522 (Simulation time: 0 hr 23 min 29 sec) 
Heartbeat CPU  0 instructions:  359000003 cycles: 1138568704 heartbeat IPC: 0.23125 cumulative IPC: 0.23521 (Simulation time: 0 hr 23 min 34 sec) 
Heartbeat CPU  0 instructions:  360000000 cycles: 1142897625 heartbeat IPC: 0.23100 cumulative IPC: 0.23519 (Simulation time: 0 hr 23 min 38 sec) 
Heartbeat CPU  0 instructions:  361000000 cycles: 1147225167 heartbeat IPC: 0.23108 cumulative IPC: 0.23518 (Simulation time: 0 hr 23 min 43 sec) 
Heartbeat CPU  0 instructions:  362000000 cycles: 1151541216 heartbeat IPC: 0.23169 cumulative IPC: 0.23516 (Simulation time: 0 hr 23 min 47 sec) 
Heartbeat CPU  0 instructions:  363000000 cycles: 1155866093 heartbeat IPC: 0.23122 cumulative IPC: 0.23515 (Simulation time: 0 hr 23 min 52 sec) 
Heartbeat CPU  0 instructions:  364000000 cycles: 1160182822 heartbeat IPC: 0.23166 cumulative IPC: 0.23513 (Simulation time: 0 hr 23 min 56 sec) 
Heartbeat CPU  0 instructions:  365000001 cycles: 1164503369 heartbeat IPC: 0.23145 cumulative IPC: 0.23512 (Simulation time: 0 hr 24 min 1 sec) 
Heartbeat CPU  0 instructions:  366000002 cycles: 1168820997 heartbeat IPC: 0.23161 cumulative IPC: 0.23511 (Simulation time: 0 hr 24 min 5 sec) 
Heartbeat CPU  0 instructions:  367000000 cycles: 1173134415 heartbeat IPC: 0.23183 cumulative IPC: 0.23509 (Simulation time: 0 hr 24 min 10 sec) 
Heartbeat CPU  0 instructions:  368000000 cycles: 1177452793 heartbeat IPC: 0.23157 cumulative IPC: 0.23508 (Simulation time: 0 hr 24 min 15 sec) 
Heartbeat CPU  0 instructions:  369000002 cycles: 1181783393 heartbeat IPC: 0.23092 cumulative IPC: 0.23506 (Simulation time: 0 hr 24 min 19 sec) 
Heartbeat CPU  0 instructions:  370000003 cycles: 1186112911 heartbeat IPC: 0.23097 cumulative IPC: 0.23505 (Simulation time: 0 hr 24 min 24 sec) 
Heartbeat CPU  0 instructions:  371000001 cycles: 1190436872 heartbeat IPC: 0.23127 cumulative IPC: 0.23503 (Simulation time: 0 hr 24 min 28 sec) 
Heartbeat CPU  0 instructions:  372000000 cycles: 1194765109 heartbeat IPC: 0.23104 cumulative IPC: 0.23502 (Simulation time: 0 hr 24 min 33 sec) 
Heartbeat CPU  0 instructions:  373000000 cycles: 1199093881 heartbeat IPC: 0.23101 cumulative IPC: 0.23500 (Simulation time: 0 hr 24 min 37 sec) 
Heartbeat CPU  0 instructions:  374000000 cycles: 1203426488 heartbeat IPC: 0.23081 cumulative IPC: 0.23499 (Simulation time: 0 hr 24 min 42 sec) 
Heartbeat CPU  0 instructions:  375000001 cycles: 1207744189 heartbeat IPC: 0.23160 cumulative IPC: 0.23498 (Simulation time: 0 hr 24 min 46 sec) 
Heartbeat CPU  0 instructions:  376000000 cycles: 1212089100 heartbeat IPC: 0.23015 cumulative IPC: 0.23496 (Simulation time: 0 hr 24 min 51 sec) 
Heartbeat CPU  0 instructions:  377000001 cycles: 1216427299 heartbeat IPC: 0.23051 cumulative IPC: 0.23494 (Simulation time: 0 hr 24 min 55 sec) 
Heartbeat CPU  0 instructions:  378000000 cycles: 1220760004 heartbeat IPC: 0.23080 cumulative IPC: 0.23493 (Simulation time: 0 hr 25 min 0 sec) 
Heartbeat CPU  0 instructions:  379000002 cycles: 1225091002 heartbeat IPC: 0.23089 cumulative IPC: 0.23491 (Simulation time: 0 hr 25 min 4 sec) 
Heartbeat CPU  0 instructions:  380000000 cycles: 1229429738 heartbeat IPC: 0.23048 cumulative IPC: 0.23490 (Simulation time: 0 hr 25 min 9 sec) 
Heartbeat CPU  0 instructions:  381000002 cycles: 1233754554 heartbeat IPC: 0.23122 cumulative IPC: 0.23488 (Simulation time: 0 hr 25 min 13 sec) 
Heartbeat CPU  0 instructions:  382000003 cycles: 1238086819 heartbeat IPC: 0.23083 cumulative IPC: 0.23487 (Simulation time: 0 hr 25 min 18 sec) 
Heartbeat CPU  0 instructions:  383000002 cycles: 1242437297 heartbeat IPC: 0.22986 cumulative IPC: 0.23485 (Simulation time: 0 hr 25 min 23 sec) 
Heartbeat CPU  0 instructions:  384000000 cycles: 1246783169 heartbeat IPC: 0.23010 cumulative IPC: 0.23483 (Simulation time: 0 hr 25 min 27 sec) 
Heartbeat CPU  0 instructions:  385000000 cycles: 1251129381 heartbeat IPC: 0.23009 cumulative IPC: 0.23482 (Simulation time: 0 hr 25 min 32 sec) 
Heartbeat CPU  0 instructions:  386000000 cycles: 1255469093 heartbeat IPC: 0.23043 cumulative IPC: 0.23480 (Simulation time: 0 hr 25 min 36 sec) 
Heartbeat CPU  0 instructions:  387000000 cycles: 1259811846 heartbeat IPC: 0.23027 cumulative IPC: 0.23478 (Simulation time: 0 hr 25 min 41 sec) 
Heartbeat CPU  0 instructions:  388000000 cycles: 1264139587 heartbeat IPC: 0.23107 cumulative IPC: 0.23477 (Simulation time: 0 hr 25 min 45 sec) 
Heartbeat CPU  0 instructions:  389000002 cycles: 1268458928 heartbeat IPC: 0.23152 cumulative IPC: 0.23476 (Simulation time: 0 hr 25 min 50 sec) 
Heartbeat CPU  0 instructions:  390000001 cycles: 1272780435 heartbeat IPC: 0.23140 cumulative IPC: 0.23475 (Simulation time: 0 hr 25 min 54 sec) 
Heartbeat CPU  0 instructions:  391000001 cycles: 1277099376 heartbeat IPC: 0.23154 cumulative IPC: 0.23474 (Simulation time: 0 hr 25 min 59 sec) 
Heartbeat CPU  0 instructions:  392000000 cycles: 1281429763 heartbeat IPC: 0.23093 cumulative IPC: 0.23472 (Simulation time: 0 hr 26 min 3 sec) 
Heartbeat CPU  0 instructions:  393000001 cycles: 1285763865 heartbeat IPC: 0.23073 cumulative IPC: 0.23471 (Simulation time: 0 hr 26 min 8 sec) 
Heartbeat CPU  0 instructions:  394000001 cycles: 1290098303 heartbeat IPC: 0.23071 cumulative IPC: 0.23470 (Simulation time: 0 hr 26 min 12 sec) 
Heartbeat CPU  0 instructions:  395000001 cycles: 1294413977 heartbeat IPC: 0.23171 cumulative IPC: 0.23469 (Simulation time: 0 hr 26 min 16 sec) 
Heartbeat CPU  0 instructions:  396000000 cycles: 1298726564 heartbeat IPC: 0.23188 cumulative IPC: 0.23468 (Simulation time: 0 hr 26 min 21 sec) 
Heartbeat CPU  0 instructions:  397000002 cycles: 1303030163 heartbeat IPC: 0.23236 cumulative IPC: 0.23467 (Simulation time: 0 hr 26 min 26 sec) 
Heartbeat CPU  0 instructions:  398000003 cycles: 1307338737 heartbeat IPC: 0.23210 cumulative IPC: 0.23466 (Simulation time: 0 hr 26 min 30 sec) 
Heartbeat CPU  0 instructions:  399000002 cycles: 1311655305 heartbeat IPC: 0.23167 cumulative IPC: 0.23465 (Simulation time: 0 hr 26 min 34 sec) 
Heartbeat CPU  0 instructions:  400000000 cycles: 1315988798 heartbeat IPC: 0.23076 cumulative IPC: 0.23464 (Simulation time: 0 hr 26 min 39 sec) 
Heartbeat CPU  0 instructions:  401000000 cycles: 1320304340 heartbeat IPC: 0.23172 cumulative IPC: 0.23463 (Simulation time: 0 hr 26 min 43 sec) 
Heartbeat CPU  0 instructions:  402000000 cycles: 1324645079 heartbeat IPC: 0.23038 cumulative IPC: 0.23461 (Simulation time: 0 hr 26 min 47 sec) 
Heartbeat CPU  0 instructions:  403000002 cycles: 1328978838 heartbeat IPC: 0.23075 cumulative IPC: 0.23460 (Simulation time: 0 hr 26 min 52 sec) 
Heartbeat CPU  0 instructions:  404000000 cycles: 1333314428 heartbeat IPC: 0.23065 cumulative IPC: 0.23459 (Simulation time: 0 hr 26 min 56 sec) 
Heartbeat CPU  0 instructions:  405000002 cycles: 1337646837 heartbeat IPC: 0.23082 cumulative IPC: 0.23457 (Simulation time: 0 hr 27 min 1 sec) 
Heartbeat CPU  0 instructions:  406000002 cycles: 1341992113 heartbeat IPC: 0.23013 cumulative IPC: 0.23456 (Simulation time: 0 hr 27 min 5 sec) 
Heartbeat CPU  0 instructions:  407000000 cycles: 1346357934 heartbeat IPC: 0.22905 cumulative IPC: 0.23454 (Simulation time: 0 hr 27 min 9 sec) 
Heartbeat CPU  0 instructions:  408000000 cycles: 1350717550 heartbeat IPC: 0.22938 cumulative IPC: 0.23452 (Simulation time: 0 hr 27 min 14 sec) 
Heartbeat CPU  0 instructions:  409000000 cycles: 1355064106 heartbeat IPC: 0.23007 cumulative IPC: 0.23451 (Simulation time: 0 hr 27 min 18 sec) 
Heartbeat CPU  0 instructions:  410000000 cycles: 1359409500 heartbeat IPC: 0.23013 cumulative IPC: 0.23449 (Simulation time: 0 hr 27 min 23 sec) 
Heartbeat CPU  0 instructions:  411000003 cycles: 1363741618 heartbeat IPC: 0.23083 cumulative IPC: 0.23448 (Simulation time: 0 hr 27 min 27 sec) 
Heartbeat CPU  0 instructions:  412000000 cycles: 1368072100 heartbeat IPC: 0.23092 cumulative IPC: 0.23447 (Simulation time: 0 hr 27 min 31 sec) 
Heartbeat CPU  0 instructions:  413000001 cycles: 1372405000 heartbeat IPC: 0.23079 cumulative IPC: 0.23446 (Simulation time: 0 hr 27 min 36 sec) 
Heartbeat CPU  0 instructions:  414000000 cycles: 1376739242 heartbeat IPC: 0.23072 cumulative IPC: 0.23445 (Simulation time: 0 hr 27 min 40 sec) 
Heartbeat CPU  0 instructions:  415000003 cycles: 1381081092 heartbeat IPC: 0.23032 cumulative IPC: 0.23443 (Simulation time: 0 hr 27 min 44 sec) 
Heartbeat CPU  0 instructions:  416000000 cycles: 1385416986 heartbeat IPC: 0.23063 cumulative IPC: 0.23442 (Simulation time: 0 hr 27 min 49 sec) 
Heartbeat CPU  0 instructions:  417000002 cycles: 1389946255 heartbeat IPC: 0.22079 cumulative IPC: 0.23438 (Simulation time: 0 hr 27 min 53 sec) 
Heartbeat CPU  0 instructions:  418000002 cycles: 1394287150 heartbeat IPC: 0.23037 cumulative IPC: 0.23436 (Simulation time: 0 hr 27 min 58 sec) 
Heartbeat CPU  0 instructions:  419000003 cycles: 1398620726 heartbeat IPC: 0.23076 cumulative IPC: 0.23435 (Simulation time: 0 hr 28 min 2 sec) 
Heartbeat CPU  0 instructions:  420000000 cycles: 1402953046 heartbeat IPC: 0.23082 cumulative IPC: 0.23434 (Simulation time: 0 hr 28 min 6 sec) 
Heartbeat CPU  0 instructions:  421000001 cycles: 1407297007 heartbeat IPC: 0.23020 cumulative IPC: 0.23433 (Simulation time: 0 hr 28 min 11 sec) 
Heartbeat CPU  0 instructions:  422000003 cycles: 1411626740 heartbeat IPC: 0.23096 cumulative IPC: 0.23432 (Simulation time: 0 hr 28 min 15 sec) 
Heartbeat CPU  0 instructions:  423000003 cycles: 1415961869 heartbeat IPC: 0.23067 cumulative IPC: 0.23430 (Simulation time: 0 hr 28 min 20 sec) 
Heartbeat CPU  0 instructions:  424000000 cycles: 1420314603 heartbeat IPC: 0.22974 cumulative IPC: 0.23429 (Simulation time: 0 hr 28 min 24 sec) 
Heartbeat CPU  0 instructions:  425000000 cycles: 1424652821 heartbeat IPC: 0.23051 cumulative IPC: 0.23428 (Simulation time: 0 hr 28 min 29 sec) 
Heartbeat CPU  0 instructions:  426000000 cycles: 1429000390 heartbeat IPC: 0.23001 cumulative IPC: 0.23427 (Simulation time: 0 hr 28 min 33 sec) 
Heartbeat CPU  0 instructions:  427000001 cycles: 1433350301 heartbeat IPC: 0.22989 cumulative IPC: 0.23425 (Simulation time: 0 hr 28 min 38 sec) 
Heartbeat CPU  0 instructions:  428000000 cycles: 1437709132 heartbeat IPC: 0.22942 cumulative IPC: 0.23424 (Simulation time: 0 hr 28 min 42 sec) 
Heartbeat CPU  0 instructions:  429000000 cycles: 1442068811 heartbeat IPC: 0.22937 cumulative IPC: 0.23422 (Simulation time: 0 hr 28 min 47 sec) 
Heartbeat CPU  0 instructions:  430000000 cycles: 1446455367 heartbeat IPC: 0.22797 cumulative IPC: 0.23420 (Simulation time: 0 hr 28 min 52 sec) 
Heartbeat CPU  0 instructions:  431000002 cycles: 1450820954 heartbeat IPC: 0.22906 cumulative IPC: 0.23419 (Simulation time: 0 hr 28 min 56 sec) 
Heartbeat CPU  0 instructions:  432000000 cycles: 1455189736 heartbeat IPC: 0.22890 cumulative IPC: 0.23417 (Simulation time: 0 hr 29 min 1 sec) 
Heartbeat CPU  0 instructions:  433000003 cycles: 1459553251 heartbeat IPC: 0.22917 cumulative IPC: 0.23415 (Simulation time: 0 hr 29 min 5 sec) 
Heartbeat CPU  0 instructions:  434000003 cycles: 1463945049 heartbeat IPC: 0.22770 cumulative IPC: 0.23413 (Simulation time: 0 hr 29 min 10 sec) 
Heartbeat CPU  0 instructions:  435000001 cycles: 1468331315 heartbeat IPC: 0.22798 cumulative IPC: 0.23412 (Simulation time: 0 hr 29 min 15 sec) 
Heartbeat CPU  0 instructions:  436000000 cycles: 1472740989 heartbeat IPC: 0.22677 cumulative IPC: 0.23409 (Simulation time: 0 hr 29 min 19 sec) 
Heartbeat CPU  0 instructions:  437000001 cycles: 1477249340 heartbeat IPC: 0.22181 cumulative IPC: 0.23405 (Simulation time: 0 hr 29 min 24 sec) 
Heartbeat CPU  0 instructions:  438000000 cycles: 1481890254 heartbeat IPC: 0.21547 cumulative IPC: 0.23400 (Simulation time: 0 hr 29 min 29 sec) 
Heartbeat CPU  0 instructions:  439000002 cycles: 1486524551 heartbeat IPC: 0.21578 cumulative IPC: 0.23394 (Simulation time: 0 hr 29 min 34 sec) 
Heartbeat CPU  0 instructions:  440000000 cycles: 1491126216 heartbeat IPC: 0.21731 cumulative IPC: 0.23388 (Simulation time: 0 hr 29 min 39 sec) 
Heartbeat CPU  0 instructions:  441000003 cycles: 1495672452 heartbeat IPC: 0.21996 cumulative IPC: 0.23384 (Simulation time: 0 hr 29 min 44 sec) 
Heartbeat CPU  0 instructions:  442000002 cycles: 1500341974 heartbeat IPC: 0.21415 cumulative IPC: 0.23378 (Simulation time: 0 hr 29 min 49 sec) 
Heartbeat CPU  0 instructions:  443000002 cycles: 1504983362 heartbeat IPC: 0.21545 cumulative IPC: 0.23372 (Simulation time: 0 hr 29 min 54 sec) 
Heartbeat CPU  0 instructions:  444000000 cycles: 1509618455 heartbeat IPC: 0.21574 cumulative IPC: 0.23366 (Simulation time: 0 hr 29 min 58 sec) 
Heartbeat CPU  0 instructions:  445000001 cycles: 1514272239 heartbeat IPC: 0.21488 cumulative IPC: 0.23360 (Simulation time: 0 hr 30 min 3 sec) 
Heartbeat CPU  0 instructions:  446000000 cycles: 1518860139 heartbeat IPC: 0.21796 cumulative IPC: 0.23356 (Simulation time: 0 hr 30 min 8 sec) 
Heartbeat CPU  0 instructions:  447000001 cycles: 1523566814 heartbeat IPC: 0.21246 cumulative IPC: 0.23349 (Simulation time: 0 hr 30 min 13 sec) 
Heartbeat CPU  0 instructions:  448000000 cycles: 1528134617 heartbeat IPC: 0.21892 cumulative IPC: 0.23344 (Simulation time: 0 hr 30 min 18 sec) 
Heartbeat CPU  0 instructions:  449000001 cycles: 1532813996 heartbeat IPC: 0.21370 cumulative IPC: 0.23338 (Simulation time: 0 hr 30 min 23 sec) 
Heartbeat CPU  0 instructions:  450000000 cycles: 1537363603 heartbeat IPC: 0.21980 cumulative IPC: 0.23334 (Simulation time: 0 hr 30 min 28 sec) 
Heartbeat CPU  0 instructions:  451000003 cycles: 1542060751 heartbeat IPC: 0.21290 cumulative IPC: 0.23328 (Simulation time: 0 hr 30 min 33 sec) 
Heartbeat CPU  0 instructions:  452000000 cycles: 1546629589 heartbeat IPC: 0.21887 cumulative IPC: 0.23323 (Simulation time: 0 hr 30 min 38 sec) 
Heartbeat CPU  0 instructions:  453000001 cycles: 1551277386 heartbeat IPC: 0.21516 cumulative IPC: 0.23318 (Simulation time: 0 hr 30 min 43 sec) 
Heartbeat CPU  0 instructions:  454000003 cycles: 1555947556 heartbeat IPC: 0.21413 cumulative IPC: 0.23312 (Simulation time: 0 hr 30 min 48 sec) 
Heartbeat CPU  0 instructions:  455000002 cycles: 1560549035 heartbeat IPC: 0.21732 cumulative IPC: 0.23307 (Simulation time: 0 hr 30 min 53 sec) 
Heartbeat CPU  0 instructions:  456000000 cycles: 1565228669 heartbeat IPC: 0.21369 cumulative IPC: 0.23301 (Simulation time: 0 hr 30 min 58 sec) 
Heartbeat CPU  0 instructions:  457000000 cycles: 1573173795 heartbeat IPC: 0.12586 cumulative IPC: 0.23246 (Simulation time: 0 hr 31 min 4 sec) 
Heartbeat CPU  0 instructions:  458000001 cycles: 1582246175 heartbeat IPC: 0.11022 cumulative IPC: 0.23174 (Simulation time: 0 hr 31 min 12 sec) 
Heartbeat CPU  0 instructions:  459000001 cycles: 1589058523 heartbeat IPC: 0.14679 cumulative IPC: 0.23137 (Simulation time: 0 hr 31 min 19 sec) 
Heartbeat CPU  0 instructions:  460000000 cycles: 1592380653 heartbeat IPC: 0.30101 cumulative IPC: 0.23152 (Simulation time: 0 hr 31 min 25 sec) 
Heartbeat CPU  0 instructions:  461000002 cycles: 1595688873 heartbeat IPC: 0.30228 cumulative IPC: 0.23167 (Simulation time: 0 hr 31 min 32 sec) 
Heartbeat CPU  0 instructions:  462000001 cycles: 1598997865 heartbeat IPC: 0.30221 cumulative IPC: 0.23182 (Simulation time: 0 hr 31 min 38 sec) 
Heartbeat CPU  0 instructions:  463000000 cycles: 1602332119 heartbeat IPC: 0.29992 cumulative IPC: 0.23196 (Simulation time: 0 hr 31 min 45 sec) 
Heartbeat CPU  0 instructions:  464000000 cycles: 1605724690 heartbeat IPC: 0.29476 cumulative IPC: 0.23210 (Simulation time: 0 hr 31 min 51 sec) 
Heartbeat CPU  0 instructions:  465000000 cycles: 1609131779 heartbeat IPC: 0.29351 cumulative IPC: 0.23223 (Simulation time: 0 hr 31 min 58 sec) 
Heartbeat CPU  0 instructions:  466000000 cycles: 1612566341 heartbeat IPC: 0.29116 cumulative IPC: 0.23236 (Simulation time: 0 hr 32 min 4 sec) 
Heartbeat CPU  0 instructions:  467000001 cycles: 1616002860 heartbeat IPC: 0.29099 cumulative IPC: 0.23249 (Simulation time: 0 hr 32 min 11 sec) 
Heartbeat CPU  0 instructions:  468000000 cycles: 1619447390 heartbeat IPC: 0.29032 cumulative IPC: 0.23261 (Simulation time: 0 hr 32 min 17 sec) 
Heartbeat CPU  0 instructions:  469000002 cycles: 1622910489 heartbeat IPC: 0.28876 cumulative IPC: 0.23273 (Simulation time: 0 hr 32 min 24 sec) 
Heartbeat CPU  0 instructions:  470000000 cycles: 1626368531 heartbeat IPC: 0.28918 cumulative IPC: 0.23286 (Simulation time: 0 hr 32 min 30 sec) 
Heartbeat CPU  0 instructions:  471000002 cycles: 1629844872 heartbeat IPC: 0.28766 cumulative IPC: 0.23298 (Simulation time: 0 hr 32 min 37 sec) 
Heartbeat CPU  0 instructions:  472000000 cycles: 1633325789 heartbeat IPC: 0.28728 cumulative IPC: 0.23310 (Simulation time: 0 hr 32 min 44 sec) 
Heartbeat CPU  0 instructions:  473000001 cycles: 1636791644 heartbeat IPC: 0.28853 cumulative IPC: 0.23322 (Simulation time: 0 hr 32 min 50 sec) 
Heartbeat CPU  0 instructions:  474000001 cycles: 1640267029 heartbeat IPC: 0.28774 cumulative IPC: 0.23333 (Simulation time: 0 hr 32 min 57 sec) 
Heartbeat CPU  0 instructions:  475000000 cycles: 1643755561 heartbeat IPC: 0.28665 cumulative IPC: 0.23345 (Simulation time: 0 hr 33 min 4 sec) 
Heartbeat CPU  0 instructions:  476000000 cycles: 1647222211 heartbeat IPC: 0.28846 cumulative IPC: 0.23357 (Simulation time: 0 hr 33 min 10 sec) 
Heartbeat CPU  0 instructions:  477000000 cycles: 1650704391 heartbeat IPC: 0.28718 cumulative IPC: 0.23368 (Simulation time: 0 hr 33 min 17 sec) 
Heartbeat CPU  0 instructions:  478000000 cycles: 1654171890 heartbeat IPC: 0.28839 cumulative IPC: 0.23380 (Simulation time: 0 hr 33 min 24 sec) 
Heartbeat CPU  0 instructions:  479000003 cycles: 1657638390 heartbeat IPC: 0.28848 cumulative IPC: 0.23392 (Simulation time: 0 hr 33 min 30 sec) 
Heartbeat CPU  0 instructions:  480000000 cycles: 1661111789 heartbeat IPC: 0.28790 cumulative IPC: 0.23403 (Simulation time: 0 hr 33 min 37 sec) 
Heartbeat CPU  0 instructions:  481000001 cycles: 1664595886 heartbeat IPC: 0.28702 cumulative IPC: 0.23415 (Simulation time: 0 hr 33 min 44 sec) 
Heartbeat CPU  0 instructions:  482000000 cycles: 1668060219 heartbeat IPC: 0.28866 cumulative IPC: 0.23426 (Simulation time: 0 hr 33 min 50 sec) 
Heartbeat CPU  0 instructions:  483000002 cycles: 1671537769 heartbeat IPC: 0.28756 cumulative IPC: 0.23438 (Simulation time: 0 hr 33 min 57 sec) 
Heartbeat CPU  0 instructions:  484000000 cycles: 1675022915 heartbeat IPC: 0.28693 cumulative IPC: 0.23449 (Simulation time: 0 hr 34 min 4 sec) 
Heartbeat CPU  0 instructions:  485000000 cycles: 1678497085 heartbeat IPC: 0.28784 cumulative IPC: 0.23460 (Simulation time: 0 hr 34 min 10 sec) 
Heartbeat CPU  0 instructions:  486000001 cycles: 1681989581 heartbeat IPC: 0.28633 cumulative IPC: 0.23471 (Simulation time: 0 hr 34 min 17 sec) 
Heartbeat CPU  0 instructions:  487000002 cycles: 1685470648 heartbeat IPC: 0.28727 cumulative IPC: 0.23482 (Simulation time: 0 hr 34 min 23 sec) 
Heartbeat CPU  0 instructions:  488000000 cycles: 1688944399 heartbeat IPC: 0.28787 cumulative IPC: 0.23493 (Simulation time: 0 hr 34 min 30 sec) 
Heartbeat CPU  0 instructions:  489000000 cycles: 1692417877 heartbeat IPC: 0.28790 cumulative IPC: 0.23505 (Simulation time: 0 hr 34 min 37 sec) 
Heartbeat CPU  0 instructions:  490000000 cycles: 1695903439 heartbeat IPC: 0.28690 cumulative IPC: 0.23515 (Simulation time: 0 hr 34 min 44 sec) 
Heartbeat CPU  0 instructions:  491000000 cycles: 1699398177 heartbeat IPC: 0.28614 cumulative IPC: 0.23526 (Simulation time: 0 hr 34 min 50 sec) 
Heartbeat CPU  0 instructions:  492000000 cycles: 1702870513 heartbeat IPC: 0.28799 cumulative IPC: 0.23537 (Simulation time: 0 hr 34 min 57 sec) 
Heartbeat CPU  0 instructions:  493000000 cycles: 1706337156 heartbeat IPC: 0.28846 cumulative IPC: 0.23548 (Simulation time: 0 hr 35 min 4 sec) 
Heartbeat CPU  0 instructions:  494000003 cycles: 1709820853 heartbeat IPC: 0.28705 cumulative IPC: 0.23559 (Simulation time: 0 hr 35 min 10 sec) 
Heartbeat CPU  0 instructions:  495000002 cycles: 1713300439 heartbeat IPC: 0.28739 cumulative IPC: 0.23570 (Simulation time: 0 hr 35 min 17 sec) 
Heartbeat CPU  0 instructions:  496000000 cycles: 1716782934 heartbeat IPC: 0.28715 cumulative IPC: 0.23580 (Simulation time: 0 hr 35 min 24 sec) 
Heartbeat CPU  0 instructions:  497000001 cycles: 1720251904 heartbeat IPC: 0.28827 cumulative IPC: 0.23591 (Simulation time: 0 hr 35 min 30 sec) 
Heartbeat CPU  0 instructions:  498000003 cycles: 1723727920 heartbeat IPC: 0.28769 cumulative IPC: 0.23602 (Simulation time: 0 hr 35 min 37 sec) 
Heartbeat CPU  0 instructions:  499000002 cycles: 1727218819 heartbeat IPC: 0.28646 cumulative IPC: 0.23612 (Simulation time: 0 hr 35 min 44 sec) 
Heartbeat CPU  0 instructions:  500000000 cycles: 1730691340 heartbeat IPC: 0.28797 cumulative IPC: 0.23623 (Simulation time: 0 hr 35 min 50 sec) 
Heartbeat CPU  0 instructions:  501000002 cycles: 1734175361 heartbeat IPC: 0.28703 cumulative IPC: 0.23633 (Simulation time: 0 hr 35 min 57 sec) 
Heartbeat CPU  0 instructions:  502000001 cycles: 1737664807 heartbeat IPC: 0.28658 cumulative IPC: 0.23644 (Simulation time: 0 hr 36 min 4 sec) 
Heartbeat CPU  0 instructions:  503000000 cycles: 1741139877 heartbeat IPC: 0.28776 cumulative IPC: 0.23654 (Simulation time: 0 hr 36 min 10 sec) 
Heartbeat CPU  0 instructions:  504000000 cycles: 1744610843 heartbeat IPC: 0.28810 cumulative IPC: 0.23665 (Simulation time: 0 hr 36 min 17 sec) 
Heartbeat CPU  0 instructions:  505000001 cycles: 1748091411 heartbeat IPC: 0.28731 cumulative IPC: 0.23675 (Simulation time: 0 hr 36 min 23 sec) 
Heartbeat CPU  0 instructions:  506000000 cycles: 1751555553 heartbeat IPC: 0.28867 cumulative IPC: 0.23685 (Simulation time: 0 hr 36 min 30 sec) 
Heartbeat CPU  0 instructions:  507000001 cycles: 1755016850 heartbeat IPC: 0.28891 cumulative IPC: 0.23696 (Simulation time: 0 hr 36 min 37 sec) 
Heartbeat CPU  0 instructions:  508000000 cycles: 1758495145 heartbeat IPC: 0.28750 cumulative IPC: 0.23706 (Simulation time: 0 hr 36 min 43 sec) 
Heartbeat CPU  0 instructions:  509000001 cycles: 1761947806 heartbeat IPC: 0.28963 cumulative IPC: 0.23717 (Simulation time: 0 hr 36 min 50 sec) 
Heartbeat CPU  0 instructions:  510000000 cycles: 1765411238 heartbeat IPC: 0.28873 cumulative IPC: 0.23727 (Simulation time: 0 hr 36 min 57 sec) 
Heartbeat CPU  0 instructions:  511000002 cycles: 1768867667 heartbeat IPC: 0.28932 cumulative IPC: 0.23737 (Simulation time: 0 hr 37 min 3 sec) 
[...]
scooby_state_4036af|52|31 0,0,0,0,0,0,0,0,0,0,0,0,0,1,0,1,
scooby_state_4036b7|21|11 0,0,0,0,1,0,0,0,0,0,0,0,0,0,0,1,
scooby_state_4036c5|30|-16 1,0,0,0,0,0,0,0,0,0,0,0,0,0,0,1,
scooby_state_4036b7|19|12 1,0,0,0,0,0,0,0,0,0,0,0,0,0,0,1,
scooby_state_4012f4|20|-16 0,0,0,1,0,0,0,0,0,0,0,0,0,0,0,1,
scooby_state_402b40|45|1 0,0,0,1,0,0,0,0,0,0,0,0,0,0,0,1,
scooby_state_403802|40|-11 1,0,0,0,0,0,0,0,0,0,0,0,0,0,0,1,
scooby_state_4036b7|39|8 1,0,0,0,0,0,0,0,0,0,0,0,0,0,0,1,
scooby_state_4036b7|59|59 0,0,0,0,0,0,1,0,0,0,0,0,0,0,0,1,
scooby_state_4038c4|29|-10 0,0,0,1,0,0,0,0,0,0,0,0,0,0,0,1,
scooby_state_4036af|48|39 0,0,0,0,0,0,0,0,0,0,1,0,0,0,0,1,
scooby_state_4036c5|37|5 0,0,0,0,0,0,0,0,0,0,1,0,0,0,0,1,
scooby_state_4012f4|30|9 1,0,0,0,0,0,0,0,0,0,0,0,0,0,0,1,
scooby_state_4012f4|41|-17 0,0,0,1,0,0,0,0,0,0,0,0,0,0,0,1,
scooby_state_4036b7|46|-2 0,0,0,0,0,0,0,1,0,0,0,0,0,0,0,1,
scooby_state_4036af|59|51 0,0,0,0,0,0,0,0,1,0,0,0,0,0,0,1,
scooby_state_41a855|47|0 0,0,0,1,0,0,0,0,0,0,0,0,0,0,0,1,
scooby_state_4036c5|17|-17 0,0,0,0,0,0,0,1,0,0,0,0,0,0,0,1,
scooby_state_4036b7|33|23 0,0,0,0,0,0,0,0,0,0,0,0,0,1,0,1,
scooby_state_4036b7|20|16 0,0,0,0,0,0,0,0,0,0,1,0,0,0,0,1,
scooby_state_4036af|59|19 0,0,0,0,0,0,0,0,0,0,0,0,1,0,0,1,
scooby_state_4036b7|39|15 1,0,0,0,0,0,0,0,0,0,0,0,0,0,0,1,
scooby_state_4012f4|46|19 0,0,0,0,0,0,0,1,0,0,0,0,0,0,0,1,
scooby_state_4038c4|4|-7 0,0,0,1,0,0,0,0,0,0,0,0,0,0,0,1,
scooby_state_4036b7|46|14 1,0,0,0,0,0,0,0,0,0,0,0,0,0,0,1,
scooby_state_4036af|48|44 0,0,0,0,0,0,0,0,0,0,0,0,0,1,0,1,
scooby_state_4012f4|5|-19 0,0,0,0,0,0,0,0,0,0,0,0,0,0,1,1,
scooby_state_4036af|49|49 0,0,0,0,0,0,0,1,0,0,0,0,0,0,0,1,
scooby_state_4036af|63|54 0,0,0,0,0,0,0,1,0,0,0,0,0,0,0,1,
scooby_state_401560|21|0 1,0,0,0,0,0,0,0,0,0,0,0,0,0,0,1,
scooby_state_4036c5|8|-11 1,0,0,0,0,0,0,0,0,0,0,0,0,0,0,1,
scooby_state_4036c5|46|-8 0,0,0,0,0,0,0,0,0,1,0,0,0,0,0,1,
scooby_state_4012f4|19|-7 0,0,0,1,0,0,0,0,0,0,0,0,0,0,0,1,
scooby_state_4012f4|23|-27 1,0,0,0,0,0,0,0,0,0,0,0,0,0,0,1,
scooby_state_4036b7|53|-3 0,0,0,0,1,0,0,0,0,0,0,0,0,0,0,1,
scooby_state_4036b7|57|24 0,0,0,0,0,0,0,0,0,0,0,0,1,0,0,1,
scooby_state_403828|18|-21 1,0,0,0,0,0,0,0,0,0,0,0,0,0,0,1,
scooby_state_4012f4|42|-21 0,0,0,0,0,0,0,0,0,0,0,1,0,0,0,1,
scooby_state_4036c5|6|-8 0,0,0,0,0,0,0,0,0,1,0,0,0,0,0,1,
scooby_state_4036c5|22|-21 1,0,0,0,0,0,0,0,0,0,0,0,0,0,0,1,
scooby_state_4038c4|27|-12 0,0,0,1,0,0,0,0,0,0,0,0,0,0,0,1,
scooby_state_4036b7|37|7 1,0,0,0,0,0,0,0,0,0,0,0,0,0,0,1,
scooby_state_4036c5|23|-8 0,0,0,0,0,0,0,0,0,0,0,0,0,1,0,1,
scooby_state_40384e|0|-2 1,0,0,0,0,0,0,0,0,0,0,0,0,0,0,1,
scooby_state_4036c5|32|-20 0,0,0,1,0,0,0,0,0,0,0,0,0,0,0,1,
scooby_state_403802|44|4 1,0,0,0,0,0,0,0,0,0,0,0,0,0,0,1,
scooby_state_4036af|60|42 1,0,0,0,0,0,0,0,0,0,0,0,0,0,0,1,
scooby_state_4036c5|10|0 0,0,0,0,0,0,0,0,0,0,0,0,0,1,0,1,
scooby_state_4036c5|62|1 0,0,0,0,0,0,0,0,0,0,0,0,1,0,0,1,
scooby_state_4036c5|16|-10 0,0,0,0,0,0,0,0,0,0,0,0,0,1,0,1,
scooby_state_4012f4|9|-33 0,0,0,1,0,0,0,0,0,0,0,0,0,0,0,1,
scooby_state_403828|40|40 0,0,0,0,0,0,0,0,0,0,0,0,0,0,1,1,
scooby_state_4012f4|3|-17 0,0,0,1,0,0,0,0,0,0,0,0,0,0,0,1,
scooby_state_4036b7|43|12 0,0,0,0,0,0,0,0,0,0,0,0,1,0,0,1,
scooby_state_4036c5|47|-12 0,0,1,0,0,0,0,0,0,0,0,0,0,0,0,1,
scooby_state_4036c5|4|-9 0,0,0,0,0,0,0,0,0,0,0,0,0,1,0,1,
scooby_state_4036c5|19|-16 0,0,1,0,0,0,0,0,0,0,0,0,0,0,0,1,
scooby_state_4038c4|46|-12 0,0,0,1,0,0,0,0,0,0,0,0,0,0,0,1,
scooby_state_4038a0|38|-2 0,0,0,1,0,0,0,0,0,0,0,0,0,0,0,1,
scooby_state_4038c4|25|9 0,0,0,1,0,0,0,0,0,0,0,0,0,0,0,1,
scooby_state_403802|13|2 0,0,0,0,0,0,0,0,0,0,0,0,0,0,1,1,
scooby_state_4036b7|34|28 0,0,0,0,0,0,0,0,0,0,0,0,1,0,0,1,
scooby_state_4012e4|9|-20 1,0,0,0,0,0,0,0,0,0,0,0,0,0,0,1,
scooby_state_4036c5|7|-10 1,0,0,0,0,0,0,0,0,0,0,0,0,0,0,1,
scooby_state_40381f|2|2 1,0,0,0,0,0,0,0,0,0,0,0,0,0,0,1,
scooby_state_4036c5|31|-26 0,0,0,1,0,0,0,0,0,0,0,0,0,0,0,1,
scooby_state_403802|53|5 0,0,0,0,0,0,0,0,0,0,0,1,0,0,0,1,
scooby_state_4038a0|28|10 0,0,0,1,0,0,0,0,0,0,0,0,0,0,0,1,
scooby_state_4036b7|50|36 0,0,0,0,0,0,0,0,0,0,0,0,0,1,0,1,
scooby_state_4036b7|35|13 0,1,0,0,0,0,0,0,0,0,0,0,0,0,0,1,
scooby_state_4038c4|35|-22 0,0,0,1,0,0,0,0,0,0,0,0,0,0,0,1,
scooby_state_4038a0|5|-1 0,0,0,1,0,0,0,0,0,0,0,0,0,0,0,1,
scooby_state_4036b7|42|36 0,0,0,0,0,0,0,0,0,0,0,0,0,1,0,1,
scooby_state_4036af|63|42 0,0,0,0,1,0,0,0,0,0,0,0,0,0,0,1,
scooby_state_4036b7|63|54 0,0,0,1,0,0,0,0,0,0,0,0,0,0,0,1,
scooby_state_4036b7|53|7 1,0,0,0,0,0,0,0,0,0,0,0,0,0,0,1,
scooby_state_4036b7|57|34 0,0,0,0,1,0,0,0,0,0,0,0,0,0,0,1,
scooby_state_41c909|36|1 0,0,0,1,0,0,0,0,0,0,0,0,0,0,0,1,
scooby_state_4036b7|27|18 0,0,0,0,1,0,0,0,0,0,0,0,0,0,0,1,
scooby_state_4036af|51|42 0,0,0,1,0,0,0,0,0,0,0,0,0,0,0,1,
scooby_state_403828|11|-43 1,0,0,0,0,0,0,0,0,0,0,0,0,0,0,1,
scooby_state_403802|54|-6 0,0,0,0,0,1,0,0,0,0,0,0,0,0,0,1,
scooby_state_4012f4|24|-18 0,0,0,1,0,0,0,0,0,0,0,0,0,0,0,1,
scooby_state_4038c4|5|-10 0,0,0,1,0,0,0,0,0,0,0,0,0,0,0,1,
scooby_state_4036af|59|22 1,0,0,0,0,0,0,0,0,0,0,0,0,0,0,1,
scooby_state_44f0c0|3|1 1,0,0,0,0,0,0,0,0,0,0,0,0,0,0,1,
scooby_state_4036af|3|-38 0,0,0,0,1,0,0,0,0,0,0,0,0,0,0,1,
scooby_state_4012f4|9|-43 0,0,0,1,0,0,0,0,0,0,0,0,0,0,0,1,
scooby_state_4038c4|23|-22 0,0,0,1,0,0,0,0,0,0,0,0,0,0,0,1,
scooby_state_4036b7|27|-1 0,0,0,0,0,0,1,0,0,0,0,0,0,0,0,1,
scooby_state_40384e|20|-33 0,0,1,0,0,0,0,0,0,0,0,0,0,0,0,1,
scooby_state_40384e|18|-10 0,0,0,0,0,0,1,0,0,0,0,0,0,0,0,1,
scooby_state_40384e|28|-29 0,0,0,0,0,0,0,0,0,0,1,0,0,0,0,1,
scooby_state_40384e|8|-36 0,0,0,1,0,0,0,0,0,0,0,0,0,0,0,1,
scooby_state_403828|47|31 1,0,0,0,0,0,0,0,0,0,0,0,0,0,0,1,
scooby_state_4012f4|45|41 0,0,0,1,0,0,0,0,0,0,0,0,0,0,0,1,
scooby_state_403828|32|31 1,0,0,0,0,0,0,0,0,0,0,0,0,0,0,1,
scooby_state_40384e|7|-31 0,0,0,0,0,0,1,0,0,0,0,0,0,0,0,1,
scooby_state_4036af|6|-51 0,0,0,0,0,0,0,0,0,0,0,0,0,0,1,1,
scooby_state_40384e|9|-38 0,0,0,0,0,0,0,0,0,0,0,0,1,0,0,1,
scooby_state_403828|55|33 0,0,0,0,0,0,0,0,0,0,0,0,0,1,0,1,
scooby_state_403828|47|32 0,0,0,0,0,0,0,0,0,0,0,0,0,0,1,1,
scooby_state_40384e|2|-33 0,0,0,0,0,0,0,0,0,0,0,0,0,1,0,1,
scooby_state_403802|62|34 0,0,0,0,0,0,0,0,0,0,0,0,1,0,0,1,
scooby_state_4012f4|36|-24 0,0,0,1,0,0,0,0,0,0,0,0,0,0,0,1,
scooby_state_4012f4|53|50 0,0,0,1,0,0,0,0,0,0,0,0,0,0,0,1,
scooby_state_4036b7|62|33 0,0,1,0,0,0,0,0,0,0,0,0,0,0,0,1,
scooby_state_4038a0|47|13 0,0,0,1,0,0,0,0,0,0,0,0,0,0,0,1,
scooby_state_40384e|27|-34 0,0,0,1,0,0,0,0,0,0,0,0,0,0,0,1,
scooby_state_403828|63|37 1,0,0,0,0,0,0,0,0,0,0,0,0,0,0,1,
scooby_state_403828|57|35 0,0,0,0,0,0,0,0,0,0,0,0,1,0,0,1,
scooby_state_4012e4|63|20 1,0,0,0,0,0,0,0,0,0,0,0,0,0,0,1,
scooby_state_403828|43|35 0,0,0,0,0,0,0,0,0,0,0,0,1,0,0,1,
scooby_state_40384e|3|-35 0,0,0,0,0,0,0,0,0,0,0,0,0,0,1,1,
scooby_state_40384e|10|-35 0,0,0,0,0,0,0,0,0,0,0,0,0,0,1,1,
scooby_state_4012f4|30|-17 0,0,0,1,0,0,0,0,0,0,0,0,0,0,0,1,
scooby_state_40384e|23|-36 0,0,0,1,0,0,0,0,0,0,0,0,0,0,0,1,
scooby_state_403802|33|-2 1,0,0,0,0,0,0,0,0,0,0,0,0,0,0,1,
scooby_state_4038a0|11|8 0,0,0,1,0,0,0,0,0,0,0,0,0,0,0,1,
scooby_state_4036b7|22|-5 0,0,0,1,0,0,0,0,0,0,0,0,0,0,0,1,
scooby_state_40384e|58|2 1,0,0,0,0,0,0,0,0,0,0,0,0,0,0,1,
scooby_state_403828|36|26 0,1,0,0,0,0,0,0,0,0,0,0,0,0,0,1,
scooby_state_4036b7|46|15 0,0,0,1,0,0,0,0,0,0,0,0,0,0,0,1,
scooby_state_4036b7|53|47 0,0,0,0,0,0,0,0,0,0,1,0,0,0,0,1,
scooby_state_403828|48|24 0,0,0,1,0,0,0,0,0,0,0,0,0,0,0,1,
scooby_state_413841|33|1 1,0,0,0,0,0,0,0,0,0,0,0,0,0,0,1,
scooby_state_4038c4|42|-16 0,0,0,1,0,0,0,0,0,0,0,0,0,0,0,1,
scooby_state_40384e|4|-24 0,0,0,0,0,0,0,1,0,0,0,0,0,0,0,1,
scooby_state_403802|13|-50 1,0,0,0,0,0,0,0,0,0,0,0,0,0,0,1,
scooby_state_40384e|22|-25 0,0,0,0,0,0,0,0,0,0,0,0,1,0,0,1,
scooby_state_4036c5|22|-10 0,0,0,0,0,0,0,0,0,0,1,0,0,0,0,1,
scooby_state_4012f4|62|53 1,0,0,0,0,0,0,0,0,0,0,0,0,0,0,1,
scooby_state_4012f4|15|-47 0,0,0,1,0,0,0,0,0,0,0,0,0,0,0,1,
scooby_state_40384e|37|-24 0,0,0,0,0,0,0,0,0,1,0,0,0,0,0,1,
scooby_state_403828|58|26 0,1,0,0,0,0,0,0,0,0,0,0,0,0,0,1,
scooby_state_4036b7|14|10 1,0,0,0,0,0,0,0,0,0,0,0,0,0,0,1,
scooby_state_403802|6|-11 1,0,0,0,0,0,0,0,0,0,0,0,0,0,0,1,
scooby_state_403828|28|25 0,0,0,0,0,0,0,0,0,0,1,0,0,0,0,1,
scooby_state_40384e|5|-26 0,0,0,0,0,0,0,0,0,0,0,0,0,0,1,1,
scooby_state_403828|37|32 0,0,0,0,0,0,0,0,0,0,0,0,0,0,1,1,
scooby_state_4036af|1|-43 1,0,0,0,0,0,0,0,0,0,0,0,0,0,0,1,
scooby_state_40384e|8|-27 0,0,0,0,0,0,0,0,0,0,0,0,0,1,0,1,
scooby_state_4036c5|18|-14 0,0,0,0,0,0,1,0,0,0,0,0,0,0,0,1,
scooby_state_40384e|15|-24 0,0,0,0,0,0,0,0,0,1,0,0,0,0,0,1,
scooby_state_403828|62|27 0,0,0,0,0,0,0,0,0,0,0,1,0,0,0,1,
scooby_state_403828|33|24 0,0,0,1,0,0,0,0,0,0,0,0,0,0,0,1,
scooby_state_403828|51|28 0,0,0,1,0,0,0,0,0,0,0,0,0,0,0,1,
scooby_state_4036b7|42|34 0,0,0,0,1,0,0,0,0,0,0,0,0,0,0,1,
scooby_state_40384e|11|-28 0,0,0,0,0,0,0,0,0,1,0,0,0,0,0,1,
scooby_state_40384e|18|-28 0,0,0,0,0,0,0,0,0,1,0,0,0,0,0,1,
scooby_state_403828|40|35 0,0,0,0,0,0,0,0,0,0,0,0,1,0,0,1,
scooby_state_4036b7|51|9 0,0,0,0,0,0,0,0,0,0,0,0,0,0,1,1,
scooby_state_4036b7|41|20 0,1,0,0,0,0,0,0,0,0,0,0,0,0,0,1,
scooby_state_4012f4|49|27 0,0,0,1,0,0,0,0,0,0,0,0,0,0,0,1,
scooby_state_4012f4|10|-37 0,0,0,1,0,0,0,0,0,0,0,0,0,0,0,1,
scooby_state_4036c5|2|-15 0,0,0,0,0,1,0,0,0,0,0,0,0,0,0,1,
scooby_state_403828|30|-7 1,0,0,0,0,0,0,0,0,0,0,0,0,0,0,1,
scooby_state_4012f4|57|32 1,0,0,0,0,0,0,0,0,0,0,0,0,0,0,1,
scooby_state_4038c4|30|-6 0,0,0,1,0,0,0,0,0,0,0,0,0,0,0,1,
scooby_state_4036c5|51|-8 0,0,0,0,0,0,0,0,0,0,0,1,0,0,0,1,
scooby_state_4036b7|59|12 0,0,0,0,0,0,0,0,0,0,1,0,0,0,0,1,
scooby_state_4038c4|33|-22 0,0,0,1,0,0,0,0,0,0,0,0,0,0,0,1,
scooby_state_4036af|9|-51 0,0,0,0,0,0,0,0,0,1,0,0,0,0,0,1,
scooby_state_4036b7|58|24 1,0,0,0,0,0,0,0,0,0,0,0,0,0,0,1,
scooby_state_4036c5|35|-20 0,0,0,0,0,0,0,1,0,0,0,0,0,0,0,1,
scooby_state_4036b7|35|31 0,0,0,0,1,0,0,0,0,0,0,0,0,0,0,1,
scooby_state_4038a0|34|11 0,0,0,1,0,0,0,0,0,0,0,0,0,0,0,1,
scooby_state_4036c5|9|-46 0,1,0,0,0,0,0,0,0,0,0,0,0,0,0,1,
scooby_state_4012e4|1|-60 0,0,0,1,0,0,0,0,0,0,0,0,0,0,0,1,
scooby_state_4036af|43|27 0,0,0,0,0,0,0,0,0,1,0,0,0,0,0,1,
scooby_state_4012f4|45|-15 1,0,0,0,0,0,0,0,0,0,0,0,0,0,0,1,
scooby_state_4036b7|44|18 0,0,0,0,0,0,0,1,0,0,0,0,0,0,0,1,
scooby_state_4036c5|39|-19 1,0,0,0,0,0,0,0,0,0,0,0,0,0,0,1,
scooby_state_4012f4|44|37 1,0,0,0,0,0,0,0,0,0,0,0,0,0,0,1,
scooby_state_4036af|35|33 0,0,0,0,0,0,1,0,0,0,0,0,0,0,0,1,
scooby_state_4036b7|37|28 0,0,0,0,0,0,1,0,0,0,0,0,0,0,0,1,
scooby_state_4036b7|49|39 0,0,0,0,0,0,0,0,0,1,0,0,0,0,0,1,
scooby_state_4012f4|0|-27 1,0,0,0,0,0,0,0,0,0,0,0,0,0,0,1,
scooby_state_41b304|12|1 0,0,0,1,0,0,0,0,0,0,0,0,0,0,0,1,
scooby_state_4036b7|54|37 0,0,0,0,0,0,0,0,0,0,0,1,0,0,0,1,
scooby_state_4036c5|38|-14 0,0,1,0,0,0,0,0,0,0,0,0,0,0,0,1,
scooby_state_4036b7|37|36 0,0,0,0,1,0,0,0,0,0,0,0,0,0,0,1,
scooby_state_4038a0|54|10 0,0,0,1,0,0,0,0,0,0,0,0,0,0,0,1,
scooby_state_40384e|2|-31 0,0,0,0,0,0,0,0,1,0,0,0,0,0,0,1,
scooby_state_403802|26|-2 1,0,0,0,0,0,0,0,0,0,0,0,0,0,0,1,
scooby_state_403802|40|24 1,0,0,0,0,0,0,0,0,0,0,0,0,0,0,1,
scooby_state_403880|34|0 1,0,0,0,0,0,0,0,0,0,0,0,0,0,0,1,
scooby_state_4012e4|56|27 1,0,0,0,0,0,0,0,0,0,0,0,0,0,0,1,
scooby_state_4036c5|25|-23 1,0,0,0,0,0,0,0,0,0,0,0,0,0,0,1,
scooby_state_4036af|53|48 0,0,0,0,0,0,0,0,0,0,0,1,0,0,0,1,
scooby_state_4012f4|61|61 0,0,0,1,0,0,0,0,0,0,0,0,0,0,0,1,
scooby_state_4012f4|41|20 1,0,0,0,0,0,0,0,0,0,0,0,0,0,0,1,
scooby_state_4038a0|41|10 0,0,0,1,0,0,0,0,0,0,0,0,0,0,0,1,
scooby_state_4036d9|27|0 1,0,0,0,0,0,0,0,0,0,0,0,0,0,0,1,
scooby_state_4036c5|36|-8 1,0,0,0,0,0,0,0,0,0,0,0,0,0,0,1,
scooby_state_4036b7|46|34 0,0,0,0,0,0,0,0,0,1,0,0,0,0,0,1,
scooby_state_4038a0|49|8 0,0,0,1,0,0,0,0,0,0,0,0,0,0,0,1,
scooby_state_4036b7|49|26 0,0,0,0,0,0,0,0,0,0,0,0,0,0,1,1,
scooby_state_4036b7|62|22 1,0,0,0,0,0,0,0,0,0,0,0,0,0,0,1,
scooby_state_40384e|17|-15 1,0,0,0,0,0,0,0,0,0,0,0,0,0,0,1,
scooby_state_4036af|9|-46 0,0,0,0,1,0,0,0,0,0,0,0,0,0,0,1,
scooby_state_4036c5|36|4 1,0,0,0,0,0,0,0,0,0,0,0,0,0,0,1,
scooby_state_403828|54|27 1,0,0,0,0,0,0,0,0,0,0,0,0,0,0,1,
scooby_state_4012f4|12|-22 0,0,0,1,0,0,0,0,0,0,0,0,0,0,0,1,
scooby_state_4036c5|27|3 0,0,1,0,0,0,0,0,0,0,0,0,0,0,0,1,
scooby_state_4036af|63|19 0,0,0,0,0,0,0,0,0,0,0,0,0,1,0,1,
scooby_state_4036b7|30|26 0,0,0,0,0,1,0,0,0,0,0,0,0,0,0,1,
scooby_state_4012f4|3|-32 1,0,0,0,0,0,0,0,0,0,0,0,0,0,0,1,
scooby_state_4038a0|40|13 0,0,0,1,0,0,0,0,0,0,0,0,0,0,0,1,
scooby_state_4036c5|24|-26 0,0,0,0,0,0,0,0,0,0,0,0,1,0,0,1,
scooby_state_41c8c9|31|17 1,0,0,0,0,0,0,0,0,0,0,0,0,0,0,1,

scooby_action_0_deg_dist 0,508748,0,0,0,0,0,0,0,0,0,0,0,0,0,0,
scooby_action_-6_deg_dist 0,50319,105,0,21,0,0,0,0,0,0,0,0,0,0,0,
scooby_action_4_deg_dist 0,13688,11,0,0,0,0,0,0,0,0,0,0,0,0,0,
scooby_action_1_deg_dist 0,15983236,1210898,0,2121511,0,2247336,0,0,0,0,0,0,0,0,0,
scooby_action_30_deg_dist 0,11941,0,0,0,0,0,0,0,0,0,0,0,0,0,0,
scooby_action_5_deg_dist 0,632269,402766,0,1006586,0,9445048,0,0,0,0,0,0,0,0,0,
scooby_action_10_deg_dist 0,18345,21,0,49,0,110,0,0,0,0,0,0,0,0,0,
scooby_action_3_deg_dist 0,14092,13,0,7,0,0,0,0,0,0,0,0,0,0,0,
scooby_action_32_deg_dist 0,12544,3,0,0,0,0,0,0,0,0,0,0,0,0,0,
scooby_action_11_deg_dist 0,13495,22,0,44,0,9,0,0,0,0,0,0,0,0,0,
scooby_action_12_deg_dist 0,13360,80,0,176,0,165,0,0,0,0,0,0,0,0,0,
scooby_action_22_deg_dist 0,13160,3,0,0,0,0,0,0,0,0,0,0,0,0,0,
scooby_action_23_deg_dist 0,13362,2,0,0,0,0,0,0,0,0,0,0,0,0,0,
scooby_action_-1_deg_dist 0,174628,16,0,4,0,0,0,0,0,0,0,0,0,0,0,
scooby_action_-3_deg_dist 0,755669,191539,0,237542,0,427272,0,0,0,0,0,0,0,0,0,

scooby_track_called 35520215
scooby_track_same_address 177812
scooby_track_evict 35342147

scooby_reward_demand_called 35520215
scooby_reward_demand_pt_not_found 25348562
scooby_reward_demand_pt_found 10171653
scooby_reward_demand_pt_found_total 10171653
scooby_reward_demand_has_reward 0
scooby_reward_train_called 23824341
scooby_reward_assign_reward_called 35342266
scooby_reward_no_pref 508741
scooby_reward_incorrect 23315600
scooby_reward_correct_untimely 8694361
scooby_reward_correct_timely 1477292
scooby_reward_out_of_bounds 1346272
scooby_reward_tracker_hit 0

scooby_reward_none_low_bw 508741
scooby_reward_none_high_bw 0
scooby_reward_incorrect_low_bw 23315600
scooby_reward_incorrect_high_bw 0
scooby_reward_correct_untimely_low_bw 8694361
scooby_reward_correct_untimely_high_bw 0
scooby_reward_correct_timely_low_bw 1477292
scooby_reward_correct_timely_high_bw 0
scooby_reward_out_of_bounds_low_bw 1346272
scooby_reward_out_of_bounds_high_bw 0
scooby_reward_tracker_hit_low_bw 0
scooby_reward_tracker_hit_high_bw 0

scooby_reward_1 0,20990714,30293,75768,332821,0,
scooby_reward_3 0,10421,255,150,612,0,
scooby_reward_4 0,10082,186,84,778,0,
scooby_reward_5 0,1287847,8293936,1000038,897135,0,
scooby_reward_10 0,14539,962,302,1730,0,
scooby_reward_11 0,9021,921,259,1958,0,
scooby_reward_12 0,8730,1085,345,2204,0,
scooby_reward_22 0,6750,591,289,3713,0,
scooby_reward_23 0,6689,540,310,3805,0,
scooby_reward_30 0,5094,352,310,5088,0,
scooby_reward_32 0,4753,319,307,5355,0,
scooby_reward_-1 0,122382,39500,7796,2440,0,
scooby_reward_-3 0,807924,324395,383196,84470,0,
scooby_reward_-6 0,30654,1026,8138,4163,0,
scooby_reward_0 508741,0,0,0,0,0,

scooby_train_called 35342146
scooby_train_compute_reward 23824341

scooby_register_fill_called 27263928
scooby_register_fill_set 18608184
scooby_register_fill_set_total 18608184

scooby_register_prefetch_hit_called 17715034
scooby_register_prefetch_hit_set 9788523
scooby_register_prefetch_hit_set_total 9788523

scooby_pref_issue_scooby 86913775

learning_engine_featurewise.action.called 35520215
learning_engine_featurewise.action.explore 64900
learning_engine_featurewise.action.exploit 35455315
learning_engine_featurewise.action.fallback 21539567
learning_engine_featurewise.action.dyn_fallback_saved_bw 0
learning_engine_featurewise.action.dyn_fallback_saved_bw_acc 1878026
learning_engine_featurewise.action.index_1_explored 4330
learning_engine_featurewise.action.index_1_exploited 21558651
learning_engine_featurewise.action.index_3_explored 4399
learning_engine_featurewise.action.index_3_exploited 9713
learning_engine_featurewise.action.index_4_explored 4305
learning_engine_featurewise.action.index_4_exploited 9394
learning_engine_featurewise.action.index_5_explored 4279
learning_engine_featurewise.action.index_5_exploited 11482390
learning_engine_featurewise.action.index_10_explored 4397
learning_engine_featurewise.action.index_10_exploited 14128
learning_engine_featurewise.action.index_11_explored 4407
learning_engine_featurewise.action.index_11_exploited 9163
learning_engine_featurewise.action.index_12_explored 4387
learning_engine_featurewise.action.index_12_exploited 9394
learning_engine_featurewise.action.index_22_explored 4479
learning_engine_featurewise.action.index_22_exploited 8684
learning_engine_featurewise.action.index_23_explored 4324
learning_engine_featurewise.action.index_23_exploited 9040
learning_engine_featurewise.action.index_30_explored 4299
learning_engine_featurewise.action.index_30_exploited 7642
learning_engine_featurewise.action.index_32_explored 4215
learning_engine_featurewise.action.index_32_exploited 8332
learning_engine_featurewise.action.index_-1_explored 4256
learning_engine_featurewise.action.index_-1_exploited 170392
learning_engine_featurewise.action.index_-3_explored 4220
learning_engine_featurewise.action.index_-3_exploited 1607802
learning_engine_featurewise.action.index_-6_explored 4290
learning_engine_featurewise.action.index_-6_exploited 46155
learning_engine_featurewise.action.index_0_explored 4313
learning_engine_featurewise.action.index_0_exploited 504435
learning_engine_featurewise.learn.called 35342146
learning_engine_featurewise.learn.su_skip_PC 0
learning_engine_featurewise.learn.su_skip_PC_Delta 0

learning_engine_featurewise.q_value_histogram.bucket_0 1467077
learning_engine_featurewise.q_value_histogram.bucket_1 117384
learning_engine_featurewise.q_value_histogram.bucket_2 21833753
learning_engine_featurewise.q_value_histogram.bucket_3 137074
learning_engine_featurewise.q_value_histogram.bucket_4 146604
learning_engine_featurewise.q_value_histogram.bucket_5 203688
learning_engine_featurewise.q_value_histogram.bucket_6 11549735
learning_engine_featurewise.q_value_histogram.bucket_7 0

learning_engine_featurewise.consensus.total 35455315
learning_engine_featurewise.consensus.feature_align_PC 33573953
learning_engine_featurewise.consensus.feature_align_PC_ratio 0.95
learning_engine_featurewise.consensus.feature_align_PC_Delta 33618743
learning_engine_featurewise.consensus.feature_align_PC_Delta_ratio 0.95
learning_engine_featurewise.consensus.feature_align_all 33321842
learning_engine_featurewise.consensus.feature_align_all_ratio 0.94

learning_engine_featurewise.feature_PC_min_weight 1000000.00000000
learning_engine_featurewise.feature_PC_max_weight 0.00000000
learning_engine_featurewise.feature_PC_Delta_min_weight 1000000.00000000
learning_engine_featurewise.feature_PC_Delta_max_weight 0.00000000
unique_pcs 176
unique_pages 200104
unique_trigger_pcs 52
total_bitmaps_seen 0
unique_bitmaps_seen 0

scooby_bw_epochs 7813534
scooby_bw_level_0 5409952
scooby_bw_level_1 1265624
scooby_bw_level_2 317878
scooby_bw_level_3 820080

scooby_ipc_epochs 0
scooby_ipc_level_0 0
scooby_ipc_level_1 0
scooby_ipc_level_2 0
scooby_ipc_level_3 0

scooby_cache_acc_epochs 1105171
scooby_cache_acc_level_0 710054
scooby_cache_acc_level_1 61324
scooby_cache_acc_level_2 38888
scooby_cache_acc_level_3 45965
scooby_cache_acc_level_4 45632
scooby_cache_acc_level_5 70102
scooby_cache_acc_level_6 68097
scooby_cache_acc_level_7 22714
scooby_cache_acc_level_8 9727
scooby_cache_acc_level_9 32668

Channel_0_RQ_row_buffer_hit 11215592
Channel_0_RQ_row_buffer_miss 15200460
Channel_0_WQ_row_buffer_hit 1959443
Channel_0_WQ_row_buffer_miss 9035342
Channel_0_WQ_full 10932
Channel_0_dbus_congested 27200174

avg_congested_cycle 11

DRAM_bw_pochs 7813534
DRAM_bw_level_0 5409952
DRAM_bw_level_1 1265624
DRAM_bw_level_2 317878
DRAM_bw_level_3 820080
