*************************************************
   ChampSim Multicore Out-of-Order Simulator
   Last compiled: Nov 21 2024 21:50:18
*************************************************
parsing config file: /home/shichen/os/compile-time-prefetcher-classification/ChampSim/config/mlop.ini

trace_0 /home/shichen/os/compile-time-prefetcher-classification/ChampSim/traces/607.cactuBSSN_s-4004B.champsimtrace.xz
adding L2C_PREFETCHER: MLOP
Initialize SHIP state
warmup_instructions 100000000
simulation_instructions 500000000
champsim_seed 266
measure_ipc 0
measure_ipc_epoch 1000
measure_dram_bw 1
measure_dram_bw_epoch 256
measure_cache_acc 1
measure_cache_acc_epoch 1024
l1d_perfect 0
l2c_perfect 0
llc_perfect 0
l1d_semi_perfect 0
l2c_semi_perfect 0
llc_semi_perfect 0
semi_perfect_cache_page_buffer_size 64

num_cpus 1
cpu_freq 4000
dram_io_freq 2400
page_size 4096
block_size 64
max_read_per_cycle 8
max_fill_per_cycle 1
dram_channels 1
log2_dram_channels 0
dram_ranks 1
dram_banks 8
dram_rows 65536
dram_columns 128
dram_row_size 8
dram_size 4096
dram_pages 1048576

fetch_width 6
decode_width 6
exec_width 4
lq_width 2
sq_width 2
retire_width 4
scheduler_size 128
branch_mispredict_penalty 20
rob_size 256
lq_size 72
sq_size 56
num_instr_destinations_sparc 4
num_instr_destinations 2
num_instr_sources 4

itlb_set 16
itlb_way 8
itlb_rq_size 16
itlb_wq_size 16
itlb_pq_size 0
itlb_mshr_size 8
itlb_latency 1

dtlb_set 16
dtlb_way 4
dtlb_rq_size 16
dtlb_wq_size 16
dtlb_pq_size 0
dtlb_mshr_size 8
dtlb_latency 1

stlb_set 128
stlb_way 12
stlb_rq_size 32
stlb_wq_size 32
stlb_pq_size 0
stlb_mshr_size 16
stlb_latency 8

l1i_size 32
l1i_set 64
l1i_way 8
l1i_rq_size 64
l1i_wq_size 64
l1i_pq_size 8
l1i_mshr_size 8
l1i_latency 1

l1d_size 32
l1d_set 64
l1d_way 8
l1d_rq_size 64
l1d_wq_size 64
l1d_pq_size 8
l1d_mshr_size 16
l1d_latency 4

l2c_size 256
l2c_set 512
l2c_way 8
l2c_rq_size 32
l2c_wq_size 32
l2c_pq_size 32
l2c_mshr_size 32
l2c_latency 10

llc_size 2048
llc_set 2048
llc_way 16
llc_rq_size 32
llc_wq_size 32
llc_pq_size 32
llc_mshr_size 64
llc_latency 20

dram_channel_width 8
dram_wq_size 64
dram_rq_size 64
tRP 15
tRCD 15
tCAS 12.5
dram_dbus_turn_around_time 30
dram_write_high_wm 56
dram_write_low_wm 48
min_dram_writes_per_switch 16
dram_mtps 2400
dram_dbus_return_time 13

mlop_pref_degree 16
mlop_num_updates 500
mlop_l1d_thresh 2
mlop_l2c_thresh 0.75
mlop_llc_thresh 0.3
mlop_debug_level 0
mlop_blocks_in_cache 4096
mlop_blocks_in_zone 64
mlop_amt_size 2048
mlop_PF_DEGREE 16
mlop_NUM_UPDATES 500
mlop_L1D_THRESH 1000
mlop_L2C_THRESH 375
mlop_LLC_THRESH 150
mlop_ORIGIN 63
mlop_MAX_OFFSET 63
mlop_MIN_OFFSET -63
mlop_ORIGIN 63
mlop_NUM_OFFSETS 127


Heartbeat CPU  0 instructions:    1000002 cycles:     570440 heartbeat IPC: 1.75304 cumulative IPC: 1.75304 (Simulation time: 0 hr 0 min 2 sec) 
Heartbeat CPU  0 instructions:    2000001 cycles:    1140156 heartbeat IPC: 1.75526 cumulative IPC: 1.75415 (Simulation time: 0 hr 0 min 5 sec) 
Heartbeat CPU  0 instructions:    3000000 cycles:    1710454 heartbeat IPC: 1.75347 cumulative IPC: 1.75392 (Simulation time: 0 hr 0 min 7 sec) 
Heartbeat CPU  0 instructions:    4000000 cycles:    2280120 heartbeat IPC: 1.75541 cumulative IPC: 1.75429 (Simulation time: 0 hr 0 min 10 sec) 
Heartbeat CPU  0 instructions:    5000003 cycles:    2850193 heartbeat IPC: 1.75417 cumulative IPC: 1.75427 (Simulation time: 0 hr 0 min 12 sec) 
Heartbeat CPU  0 instructions:    6000003 cycles:    3420263 heartbeat IPC: 1.75417 cumulative IPC: 1.75425 (Simulation time: 0 hr 0 min 15 sec) 
Heartbeat CPU  0 instructions:    7000000 cycles:    3990597 heartbeat IPC: 1.75335 cumulative IPC: 1.75412 (Simulation time: 0 hr 0 min 17 sec) 
Heartbeat CPU  0 instructions:    8000000 cycles:    4560521 heartbeat IPC: 1.75462 cumulative IPC: 1.75419 (Simulation time: 0 hr 0 min 20 sec) 
Heartbeat CPU  0 instructions:    9000002 cycles:    5130460 heartbeat IPC: 1.75458 cumulative IPC: 1.75423 (Simulation time: 0 hr 0 min 22 sec) 
Heartbeat CPU  0 instructions:   10000000 cycles:    5700432 heartbeat IPC: 1.75447 cumulative IPC: 1.75425 (Simulation time: 0 hr 0 min 25 sec) 
Heartbeat CPU  0 instructions:   11000003 cycles:    6271087 heartbeat IPC: 1.75238 cumulative IPC: 1.75408 (Simulation time: 0 hr 0 min 27 sec) 
Heartbeat CPU  0 instructions:   12000000 cycles:    6840913 heartbeat IPC: 1.75492 cumulative IPC: 1.75415 (Simulation time: 0 hr 0 min 30 sec) 
Heartbeat CPU  0 instructions:   13000003 cycles:    7410983 heartbeat IPC: 1.75418 cumulative IPC: 1.75415 (Simulation time: 0 hr 0 min 32 sec) 
Heartbeat CPU  0 instructions:   14000003 cycles:    7981812 heartbeat IPC: 1.75184 cumulative IPC: 1.75399 (Simulation time: 0 hr 0 min 35 sec) 
Heartbeat CPU  0 instructions:   15000001 cycles:    8551677 heartbeat IPC: 1.75480 cumulative IPC: 1.75404 (Simulation time: 0 hr 0 min 37 sec) 
Heartbeat CPU  0 instructions:   16000000 cycles:    9121341 heartbeat IPC: 1.75542 cumulative IPC: 1.75413 (Simulation time: 0 hr 0 min 40 sec) 
Heartbeat CPU  0 instructions:   17000001 cycles:    9691496 heartbeat IPC: 1.75391 cumulative IPC: 1.75412 (Simulation time: 0 hr 0 min 43 sec) 
Heartbeat CPU  0 instructions:   18000001 cycles:   10261384 heartbeat IPC: 1.75473 cumulative IPC: 1.75415 (Simulation time: 0 hr 0 min 45 sec) 
Heartbeat CPU  0 instructions:   19000003 cycles:   10831528 heartbeat IPC: 1.75395 cumulative IPC: 1.75414 (Simulation time: 0 hr 0 min 48 sec) 
Heartbeat CPU  0 instructions:   20000000 cycles:   11401026 heartbeat IPC: 1.75593 cumulative IPC: 1.75423 (Simulation time: 0 hr 0 min 50 sec) 
Heartbeat CPU  0 instructions:   21000002 cycles:   11971046 heartbeat IPC: 1.75433 cumulative IPC: 1.75423 (Simulation time: 0 hr 0 min 53 sec) 
Heartbeat CPU  0 instructions:   22000003 cycles:   12541472 heartbeat IPC: 1.75308 cumulative IPC: 1.75418 (Simulation time: 0 hr 0 min 55 sec) 
Heartbeat CPU  0 instructions:   23000001 cycles:   13111073 heartbeat IPC: 1.75561 cumulative IPC: 1.75424 (Simulation time: 0 hr 0 min 58 sec) 
Heartbeat CPU  0 instructions:   24000000 cycles:   13680817 heartbeat IPC: 1.75517 cumulative IPC: 1.75428 (Simulation time: 0 hr 1 min 0 sec) 
Heartbeat CPU  0 instructions:   25000000 cycles:   14251082 heartbeat IPC: 1.75357 cumulative IPC: 1.75425 (Simulation time: 0 hr 1 min 3 sec) 
Heartbeat CPU  0 instructions:   26000003 cycles:   14820869 heartbeat IPC: 1.75505 cumulative IPC: 1.75428 (Simulation time: 0 hr 1 min 5 sec) 
Heartbeat CPU  0 instructions:   27000003 cycles:   15391007 heartbeat IPC: 1.75396 cumulative IPC: 1.75427 (Simulation time: 0 hr 1 min 8 sec) 
Heartbeat CPU  0 instructions:   28000000 cycles:   15960783 heartbeat IPC: 1.75507 cumulative IPC: 1.75430 (Simulation time: 0 hr 1 min 10 sec) 
Heartbeat CPU  0 instructions:   29000002 cycles:   16530503 heartbeat IPC: 1.75525 cumulative IPC: 1.75433 (Simulation time: 0 hr 1 min 13 sec) 
Heartbeat CPU  0 instructions:   30000001 cycles:   17100798 heartbeat IPC: 1.75348 cumulative IPC: 1.75430 (Simulation time: 0 hr 1 min 15 sec) 
Heartbeat CPU  0 instructions:   31000000 cycles:   17670994 heartbeat IPC: 1.75378 cumulative IPC: 1.75429 (Simulation time: 0 hr 1 min 18 sec) 
Heartbeat CPU  0 instructions:   32000000 cycles:   18240683 heartbeat IPC: 1.75534 cumulative IPC: 1.75432 (Simulation time: 0 hr 1 min 20 sec) 
Heartbeat CPU  0 instructions:   33000000 cycles:   18810920 heartbeat IPC: 1.75366 cumulative IPC: 1.75430 (Simulation time: 0 hr 1 min 23 sec) 
Heartbeat CPU  0 instructions:   34000003 cycles:   19381022 heartbeat IPC: 1.75408 cumulative IPC: 1.75429 (Simulation time: 0 hr 1 min 25 sec) 
Heartbeat CPU  0 instructions:   35000002 cycles:   19950694 heartbeat IPC: 1.75539 cumulative IPC: 1.75433 (Simulation time: 0 hr 1 min 28 sec) 
Heartbeat CPU  0 instructions:   36000000 cycles:   20520534 heartbeat IPC: 1.75488 cumulative IPC: 1.75434 (Simulation time: 0 hr 1 min 30 sec) 
Heartbeat CPU  0 instructions:   37000002 cycles:   21090625 heartbeat IPC: 1.75411 cumulative IPC: 1.75433 (Simulation time: 0 hr 1 min 33 sec) 
Heartbeat CPU  0 instructions:   38000001 cycles:   21660980 heartbeat IPC: 1.75329 cumulative IPC: 1.75431 (Simulation time: 0 hr 1 min 35 sec) 
Heartbeat CPU  0 instructions:   39000000 cycles:   22231081 heartbeat IPC: 1.75407 cumulative IPC: 1.75430 (Simulation time: 0 hr 1 min 38 sec) 
Heartbeat CPU  0 instructions:   40000000 cycles:   22800568 heartbeat IPC: 1.75597 cumulative IPC: 1.75434 (Simulation time: 0 hr 1 min 40 sec) 
Heartbeat CPU  0 instructions:   41000000 cycles:   23370936 heartbeat IPC: 1.75325 cumulative IPC: 1.75432 (Simulation time: 0 hr 1 min 43 sec) 
Heartbeat CPU  0 instructions:   42000003 cycles:   23941218 heartbeat IPC: 1.75352 cumulative IPC: 1.75430 (Simulation time: 0 hr 1 min 45 sec) 
Heartbeat CPU  0 instructions:   43000002 cycles:   24510807 heartbeat IPC: 1.75565 cumulative IPC: 1.75433 (Simulation time: 0 hr 1 min 48 sec) 
Heartbeat CPU  0 instructions:   44000000 cycles:   25080904 heartbeat IPC: 1.75408 cumulative IPC: 1.75432 (Simulation time: 0 hr 1 min 51 sec) 
Heartbeat CPU  0 instructions:   45000002 cycles:   25650924 heartbeat IPC: 1.75433 cumulative IPC: 1.75432 (Simulation time: 0 hr 1 min 53 sec) 
Heartbeat CPU  0 instructions:   46000002 cycles:   26220722 heartbeat IPC: 1.75501 cumulative IPC: 1.75434 (Simulation time: 0 hr 1 min 56 sec) 
Heartbeat CPU  0 instructions:   47000000 cycles:   26791099 heartbeat IPC: 1.75322 cumulative IPC: 1.75431 (Simulation time: 0 hr 1 min 58 sec) 
Heartbeat CPU  0 instructions:   48000000 cycles:   27360945 heartbeat IPC: 1.75486 cumulative IPC: 1.75433 (Simulation time: 0 hr 2 min 1 sec) 
Heartbeat CPU  0 instructions:   49000000 cycles:   27930895 heartbeat IPC: 1.75454 cumulative IPC: 1.75433 (Simulation time: 0 hr 2 min 3 sec) 
Heartbeat CPU  0 instructions:   50000000 cycles:   28501017 heartbeat IPC: 1.75401 cumulative IPC: 1.75432 (Simulation time: 0 hr 2 min 6 sec) 
Heartbeat CPU  0 instructions:   51000002 cycles:   29070987 heartbeat IPC: 1.75448 cumulative IPC: 1.75433 (Simulation time: 0 hr 2 min 8 sec) 
Heartbeat CPU  0 instructions:   52000000 cycles:   29641099 heartbeat IPC: 1.75404 cumulative IPC: 1.75432 (Simulation time: 0 hr 2 min 11 sec) 
Heartbeat CPU  0 instructions:   53000003 cycles:   30210867 heartbeat IPC: 1.75511 cumulative IPC: 1.75434 (Simulation time: 0 hr 2 min 13 sec) 
Heartbeat CPU  0 instructions:   54000002 cycles:   30781110 heartbeat IPC: 1.75364 cumulative IPC: 1.75432 (Simulation time: 0 hr 2 min 16 sec) 
Heartbeat CPU  0 instructions:   55000000 cycles:   31351585 heartbeat IPC: 1.75292 cumulative IPC: 1.75430 (Simulation time: 0 hr 2 min 18 sec) 
Heartbeat CPU  0 instructions:   56000000 cycles:   31921161 heartbeat IPC: 1.75569 cumulative IPC: 1.75432 (Simulation time: 0 hr 2 min 21 sec) 
Heartbeat CPU  0 instructions:   57000003 cycles:   32491509 heartbeat IPC: 1.75332 cumulative IPC: 1.75430 (Simulation time: 0 hr 2 min 23 sec) 
Heartbeat CPU  0 instructions:   58000000 cycles:   33061760 heartbeat IPC: 1.75361 cumulative IPC: 1.75429 (Simulation time: 0 hr 2 min 26 sec) 
Heartbeat CPU  0 instructions:   59000002 cycles:   33631792 heartbeat IPC: 1.75429 cumulative IPC: 1.75429 (Simulation time: 0 hr 2 min 28 sec) 
Heartbeat CPU  0 instructions:   60000000 cycles:   34201390 heartbeat IPC: 1.75562 cumulative IPC: 1.75431 (Simulation time: 0 hr 2 min 31 sec) 
Heartbeat CPU  0 instructions:   61000001 cycles:   34771460 heartbeat IPC: 1.75417 cumulative IPC: 1.75431 (Simulation time: 0 hr 2 min 33 sec) 
Heartbeat CPU  0 instructions:   62000000 cycles:   35341689 heartbeat IPC: 1.75368 cumulative IPC: 1.75430 (Simulation time: 0 hr 2 min 36 sec) 
Heartbeat CPU  0 instructions:   63000000 cycles:   35911691 heartbeat IPC: 1.75438 cumulative IPC: 1.75430 (Simulation time: 0 hr 2 min 38 sec) 
Heartbeat CPU  0 instructions:   64000000 cycles:   36481157 heartbeat IPC: 1.75603 cumulative IPC: 1.75433 (Simulation time: 0 hr 2 min 41 sec) 
Heartbeat CPU  0 instructions:   65000000 cycles:   37051596 heartbeat IPC: 1.75304 cumulative IPC: 1.75431 (Simulation time: 0 hr 2 min 43 sec) 
Heartbeat CPU  0 instructions:   66000003 cycles:   37621338 heartbeat IPC: 1.75519 cumulative IPC: 1.75432 (Simulation time: 0 hr 2 min 46 sec) 
Heartbeat CPU  0 instructions:   67000002 cycles:   38191267 heartbeat IPC: 1.75460 cumulative IPC: 1.75433 (Simulation time: 0 hr 2 min 48 sec) 
Heartbeat CPU  0 instructions:   68000000 cycles:   38761061 heartbeat IPC: 1.75502 cumulative IPC: 1.75434 (Simulation time: 0 hr 2 min 51 sec) 
Heartbeat CPU  0 instructions:   69000002 cycles:   39331176 heartbeat IPC: 1.75404 cumulative IPC: 1.75433 (Simulation time: 0 hr 2 min 53 sec) 
Heartbeat CPU  0 instructions:   70000002 cycles:   39900963 heartbeat IPC: 1.75504 cumulative IPC: 1.75434 (Simulation time: 0 hr 2 min 56 sec) 
Heartbeat CPU  0 instructions:   71000000 cycles:   40471321 heartbeat IPC: 1.75328 cumulative IPC: 1.75433 (Simulation time: 0 hr 2 min 58 sec) 
Heartbeat CPU  0 instructions:   72000000 cycles:   41040835 heartbeat IPC: 1.75588 cumulative IPC: 1.75435 (Simulation time: 0 hr 3 min 1 sec) 
Heartbeat CPU  0 instructions:   73000000 cycles:   41610991 heartbeat IPC: 1.75391 cumulative IPC: 1.75434 (Simulation time: 0 hr 3 min 3 sec) 
Heartbeat CPU  0 instructions:   74000000 cycles:   42181155 heartbeat IPC: 1.75388 cumulative IPC: 1.75434 (Simulation time: 0 hr 3 min 6 sec) 
Heartbeat CPU  0 instructions:   75000002 cycles:   42751255 heartbeat IPC: 1.75408 cumulative IPC: 1.75433 (Simulation time: 0 hr 3 min 8 sec) 
Heartbeat CPU  0 instructions:   76000000 cycles:   43321063 heartbeat IPC: 1.75497 cumulative IPC: 1.75434 (Simulation time: 0 hr 3 min 11 sec) 
Heartbeat CPU  0 instructions:   77000000 cycles:   43891193 heartbeat IPC: 1.75399 cumulative IPC: 1.75434 (Simulation time: 0 hr 3 min 13 sec) 
Heartbeat CPU  0 instructions:   78000000 cycles:   44461153 heartbeat IPC: 1.75451 cumulative IPC: 1.75434 (Simulation time: 0 hr 3 min 16 sec) 
Heartbeat CPU  0 instructions:   79000000 cycles:   45031360 heartbeat IPC: 1.75375 cumulative IPC: 1.75433 (Simulation time: 0 hr 3 min 18 sec) 
Heartbeat CPU  0 instructions:   80000000 cycles:   45600649 heartbeat IPC: 1.75658 cumulative IPC: 1.75436 (Simulation time: 0 hr 3 min 21 sec) 
Heartbeat CPU  0 instructions:   81000000 cycles:   46171096 heartbeat IPC: 1.75301 cumulative IPC: 1.75434 (Simulation time: 0 hr 3 min 23 sec) 
Heartbeat CPU  0 instructions:   82000001 cycles:   46741229 heartbeat IPC: 1.75398 cumulative IPC: 1.75434 (Simulation time: 0 hr 3 min 26 sec) 
Heartbeat CPU  0 instructions:   83000000 cycles:   47310817 heartbeat IPC: 1.75565 cumulative IPC: 1.75436 (Simulation time: 0 hr 3 min 28 sec) 
Heartbeat CPU  0 instructions:   84000000 cycles:   47880659 heartbeat IPC: 1.75487 cumulative IPC: 1.75436 (Simulation time: 0 hr 3 min 31 sec) 
Heartbeat CPU  0 instructions:   85000002 cycles:   48451257 heartbeat IPC: 1.75255 cumulative IPC: 1.75434 (Simulation time: 0 hr 3 min 33 sec) 
Heartbeat CPU  0 instructions:   86000003 cycles:   49021067 heartbeat IPC: 1.75497 cumulative IPC: 1.75435 (Simulation time: 0 hr 3 min 36 sec) 
Heartbeat CPU  0 instructions:   87000002 cycles:   49590925 heartbeat IPC: 1.75482 cumulative IPC: 1.75435 (Simulation time: 0 hr 3 min 38 sec) 
Heartbeat CPU  0 instructions:   88000000 cycles:   50160831 heartbeat IPC: 1.75467 cumulative IPC: 1.75436 (Simulation time: 0 hr 3 min 41 sec) 
Heartbeat CPU  0 instructions:   89000000 cycles:   50731078 heartbeat IPC: 1.75363 cumulative IPC: 1.75435 (Simulation time: 0 hr 3 min 43 sec) 
Heartbeat CPU  0 instructions:   90000001 cycles:   51301333 heartbeat IPC: 1.75360 cumulative IPC: 1.75434 (Simulation time: 0 hr 3 min 46 sec) 
Heartbeat CPU  0 instructions:   91000000 cycles:   51871401 heartbeat IPC: 1.75417 cumulative IPC: 1.75434 (Simulation time: 0 hr 3 min 49 sec) 
Heartbeat CPU  0 instructions:   92000000 cycles:   52441198 heartbeat IPC: 1.75501 cumulative IPC: 1.75435 (Simulation time: 0 hr 3 min 51 sec) 
Heartbeat CPU  0 instructions:   93000002 cycles:   53011455 heartbeat IPC: 1.75360 cumulative IPC: 1.75434 (Simulation time: 0 hr 3 min 54 sec) 
Heartbeat CPU  0 instructions:   94000000 cycles:   53581578 heartbeat IPC: 1.75400 cumulative IPC: 1.75433 (Simulation time: 0 hr 3 min 56 sec) 
Heartbeat CPU  0 instructions:   95000002 cycles:   54151888 heartbeat IPC: 1.75344 cumulative IPC: 1.75432 (Simulation time: 0 hr 3 min 59 sec) 
Heartbeat CPU  0 instructions:   96000000 cycles:   54721503 heartbeat IPC: 1.75557 cumulative IPC: 1.75434 (Simulation time: 0 hr 4 min 1 sec) 
Heartbeat CPU  0 instructions:   97000003 cycles:   55291726 heartbeat IPC: 1.75371 cumulative IPC: 1.75433 (Simulation time: 0 hr 4 min 4 sec) 
Heartbeat CPU  0 instructions:   98000001 cycles:   55862277 heartbeat IPC: 1.75269 cumulative IPC: 1.75431 (Simulation time: 0 hr 4 min 6 sec) 
Heartbeat CPU  0 instructions:   99000000 cycles:   56431996 heartbeat IPC: 1.75525 cumulative IPC: 1.75432 (Simulation time: 0 hr 4 min 9 sec) 
Heartbeat CPU  0 instructions:  100000000 cycles:   57001524 heartbeat IPC: 1.75584 cumulative IPC: 1.75434 (Simulation time: 0 hr 4 min 11 sec) 

Warmup complete CPU  0 instructions:  100000001 cycles:   57001540 (Simulation time: 0 hr 4 min 11 sec) 

Heartbeat CPU  0 instructions:  101000001 cycles:   57895186 heartbeat IPC: 1.11899 cumulative IPC: 1.11901 (Simulation time: 0 hr 4 min 14 sec) 
Heartbeat CPU  0 instructions:  102000000 cycles:   58786200 heartbeat IPC: 1.12232 cumulative IPC: 1.12066 (Simulation time: 0 hr 4 min 17 sec) 
Heartbeat CPU  0 instructions:  103000002 cycles:   59677095 heartbeat IPC: 1.12247 cumulative IPC: 1.12126 (Simulation time: 0 hr 4 min 20 sec) 
Heartbeat CPU  0 instructions:  104000000 cycles:   60567220 heartbeat IPC: 1.12344 cumulative IPC: 1.12181 (Simulation time: 0 hr 4 min 23 sec) 
Heartbeat CPU  0 instructions:  105000002 cycles:   61455944 heartbeat IPC: 1.12521 cumulative IPC: 1.12248 (Simulation time: 0 hr 4 min 26 sec) 
Heartbeat CPU  0 instructions:  106000001 cycles:   62343483 heartbeat IPC: 1.12671 cumulative IPC: 1.12319 (Simulation time: 0 hr 4 min 29 sec) 
Heartbeat CPU  0 instructions:  107000002 cycles:   63232481 heartbeat IPC: 1.12486 cumulative IPC: 1.12343 (Simulation time: 0 hr 4 min 32 sec) 
Heartbeat CPU  0 instructions:  108000000 cycles:   64114206 heartbeat IPC: 1.13414 cumulative IPC: 1.12475 (Simulation time: 0 hr 4 min 35 sec) 
Heartbeat CPU  0 instructions:  109000001 cycles:   64998617 heartbeat IPC: 1.13070 cumulative IPC: 1.12541 (Simulation time: 0 hr 4 min 38 sec) 
Heartbeat CPU  0 instructions:  110000001 cycles:   65885740 heartbeat IPC: 1.12724 cumulative IPC: 1.12559 (Simulation time: 0 hr 4 min 41 sec) 
Heartbeat CPU  0 instructions:  111000000 cycles:   66772483 heartbeat IPC: 1.12772 cumulative IPC: 1.12579 (Simulation time: 0 hr 4 min 44 sec) 
Heartbeat CPU  0 instructions:  112000000 cycles:   67655683 heartbeat IPC: 1.13225 cumulative IPC: 1.12632 (Simulation time: 0 hr 4 min 47 sec) 
Heartbeat CPU  0 instructions:  113000002 cycles:   68540970 heartbeat IPC: 1.12958 cumulative IPC: 1.12657 (Simulation time: 0 hr 4 min 50 sec) 
Heartbeat CPU  0 instructions:  114000003 cycles:   69423865 heartbeat IPC: 1.13264 cumulative IPC: 1.12700 (Simulation time: 0 hr 4 min 53 sec) 
Heartbeat CPU  0 instructions:  115000001 cycles:   70308084 heartbeat IPC: 1.13094 cumulative IPC: 1.12726 (Simulation time: 0 hr 4 min 56 sec) 
Heartbeat CPU  0 instructions:  116000000 cycles:   71189695 heartbeat IPC: 1.13429 cumulative IPC: 1.12770 (Simulation time: 0 hr 4 min 59 sec) 
Heartbeat CPU  0 instructions:  117000001 cycles:   72076933 heartbeat IPC: 1.12709 cumulative IPC: 1.12767 (Simulation time: 0 hr 5 min 2 sec) 
Heartbeat CPU  0 instructions:  118000001 cycles:   72963940 heartbeat IPC: 1.12739 cumulative IPC: 1.12765 (Simulation time: 0 hr 5 min 5 sec) 
Heartbeat CPU  0 instructions:  119000001 cycles:   73843897 heartbeat IPC: 1.13642 cumulative IPC: 1.12811 (Simulation time: 0 hr 5 min 8 sec) 
Heartbeat CPU  0 instructions:  120000000 cycles:   74730864 heartbeat IPC: 1.12744 cumulative IPC: 1.12807 (Simulation time: 0 hr 5 min 11 sec) 
Heartbeat CPU  0 instructions:  121000000 cycles:   75612474 heartbeat IPC: 1.13429 cumulative IPC: 1.12837 (Simulation time: 0 hr 5 min 14 sec) 
Heartbeat CPU  0 instructions:  122000003 cycles:   76495744 heartbeat IPC: 1.13216 cumulative IPC: 1.12854 (Simulation time: 0 hr 5 min 17 sec) 
Heartbeat CPU  0 instructions:  123000002 cycles:   77380722 heartbeat IPC: 1.12997 cumulative IPC: 1.12860 (Simulation time: 0 hr 5 min 20 sec) 
Heartbeat CPU  0 instructions:  124000000 cycles:   78262537 heartbeat IPC: 1.13402 cumulative IPC: 1.12883 (Simulation time: 0 hr 5 min 23 sec) 
Heartbeat CPU  0 instructions:  125000001 cycles:   79148874 heartbeat IPC: 1.12824 cumulative IPC: 1.12880 (Simulation time: 0 hr 5 min 26 sec) 
Heartbeat CPU  0 instructions:  126000001 cycles:   80037177 heartbeat IPC: 1.12574 cumulative IPC: 1.12869 (Simulation time: 0 hr 5 min 29 sec) 
Heartbeat CPU  0 instructions:  127000001 cycles:   80921670 heartbeat IPC: 1.13059 cumulative IPC: 1.12876 (Simulation time: 0 hr 5 min 32 sec) 
Heartbeat CPU  0 instructions:  128000000 cycles:   81806798 heartbeat IPC: 1.12978 cumulative IPC: 1.12879 (Simulation time: 0 hr 5 min 35 sec) 
Heartbeat CPU  0 instructions:  129000000 cycles:   82696712 heartbeat IPC: 1.12370 cumulative IPC: 1.12862 (Simulation time: 0 hr 5 min 38 sec) 
Heartbeat CPU  0 instructions:  130000003 cycles:   83581684 heartbeat IPC: 1.12998 cumulative IPC: 1.12866 (Simulation time: 0 hr 5 min 41 sec) 
Heartbeat CPU  0 instructions:  131000000 cycles:   84467344 heartbeat IPC: 1.12910 cumulative IPC: 1.12868 (Simulation time: 0 hr 5 min 44 sec) 
Heartbeat CPU  0 instructions:  132000000 cycles:   85351033 heartbeat IPC: 1.13162 cumulative IPC: 1.12877 (Simulation time: 0 hr 5 min 47 sec) 
Heartbeat CPU  0 instructions:  133000002 cycles:   86238108 heartbeat IPC: 1.12730 cumulative IPC: 1.12872 (Simulation time: 0 hr 5 min 50 sec) 
Heartbeat CPU  0 instructions:  134000002 cycles:   87123324 heartbeat IPC: 1.12967 cumulative IPC: 1.12875 (Simulation time: 0 hr 5 min 53 sec) 
Heartbeat CPU  0 instructions:  135000002 cycles:   88008113 heartbeat IPC: 1.13021 cumulative IPC: 1.12879 (Simulation time: 0 hr 5 min 56 sec) 
Heartbeat CPU  0 instructions:  136000000 cycles:   88894213 heartbeat IPC: 1.12854 cumulative IPC: 1.12879 (Simulation time: 0 hr 5 min 59 sec) 
Heartbeat CPU  0 instructions:  137000001 cycles:   89784752 heartbeat IPC: 1.12292 cumulative IPC: 1.12863 (Simulation time: 0 hr 6 min 2 sec) 
Heartbeat CPU  0 instructions:  138000000 cycles:   90669983 heartbeat IPC: 1.12965 cumulative IPC: 1.12865 (Simulation time: 0 hr 6 min 5 sec) 
Heartbeat CPU  0 instructions:  139000003 cycles:   91558684 heartbeat IPC: 1.12524 cumulative IPC: 1.12857 (Simulation time: 0 hr 6 min 8 sec) 
Heartbeat CPU  0 instructions:  140000000 cycles:   92446285 heartbeat IPC: 1.12663 cumulative IPC: 1.12852 (Simulation time: 0 hr 6 min 11 sec) 
Heartbeat CPU  0 instructions:  141000002 cycles:   93331146 heartbeat IPC: 1.13012 cumulative IPC: 1.12856 (Simulation time: 0 hr 6 min 14 sec) 
Heartbeat CPU  0 instructions:  142000002 cycles:   94220206 heartbeat IPC: 1.12478 cumulative IPC: 1.12847 (Simulation time: 0 hr 6 min 17 sec) 
Heartbeat CPU  0 instructions:  143000001 cycles:   95105298 heartbeat IPC: 1.12982 cumulative IPC: 1.12850 (Simulation time: 0 hr 6 min 20 sec) 
Heartbeat CPU  0 instructions:  144000000 cycles:   95991991 heartbeat IPC: 1.12778 cumulative IPC: 1.12848 (Simulation time: 0 hr 6 min 23 sec) 
Heartbeat CPU  0 instructions:  145000002 cycles:   96875913 heartbeat IPC: 1.13132 cumulative IPC: 1.12854 (Simulation time: 0 hr 6 min 26 sec) 
Heartbeat CPU  0 instructions:  146000000 cycles:   97761051 heartbeat IPC: 1.12977 cumulative IPC: 1.12857 (Simulation time: 0 hr 6 min 30 sec) 
Heartbeat CPU  0 instructions:  147000003 cycles:   98647379 heartbeat IPC: 1.12825 cumulative IPC: 1.12856 (Simulation time: 0 hr 6 min 33 sec) 
Heartbeat CPU  0 instructions:  148000000 cycles:   99535560 heartbeat IPC: 1.12589 cumulative IPC: 1.12851 (Simulation time: 0 hr 6 min 36 sec) 
Heartbeat CPU  0 instructions:  149000000 cycles:  100426089 heartbeat IPC: 1.12293 cumulative IPC: 1.12839 (Simulation time: 0 hr 6 min 39 sec) 
Heartbeat CPU  0 instructions:  150000000 cycles:  101313962 heartbeat IPC: 1.12629 cumulative IPC: 1.12835 (Simulation time: 0 hr 6 min 42 sec) 
Heartbeat CPU  0 instructions:  151000002 cycles:  102200896 heartbeat IPC: 1.12748 cumulative IPC: 1.12833 (Simulation time: 0 hr 6 min 45 sec) 
Heartbeat CPU  0 instructions:  152000000 cycles:  103094185 heartbeat IPC: 1.11946 cumulative IPC: 1.12816 (Simulation time: 0 hr 6 min 48 sec) 
Heartbeat CPU  0 instructions:  153000002 cycles:  103984100 heartbeat IPC: 1.12371 cumulative IPC: 1.12808 (Simulation time: 0 hr 6 min 51 sec) 
Heartbeat CPU  0 instructions:  154000003 cycles:  104870644 heartbeat IPC: 1.12798 cumulative IPC: 1.12808 (Simulation time: 0 hr 6 min 54 sec) 
Heartbeat CPU  0 instructions:  155000000 cycles:  105759376 heartbeat IPC: 1.12520 cumulative IPC: 1.12802 (Simulation time: 0 hr 6 min 57 sec) 
Heartbeat CPU  0 instructions:  156000000 cycles:  106646647 heartbeat IPC: 1.12705 cumulative IPC: 1.12801 (Simulation time: 0 hr 7 min 0 sec) 
Heartbeat CPU  0 instructions:  157000000 cycles:  107530968 heartbeat IPC: 1.13081 cumulative IPC: 1.12806 (Simulation time: 0 hr 7 min 3 sec) 
Heartbeat CPU  0 instructions:  158000001 cycles:  108418214 heartbeat IPC: 1.12708 cumulative IPC: 1.12804 (Simulation time: 0 hr 7 min 6 sec) 
Heartbeat CPU  0 instructions:  159000000 cycles:  109306972 heartbeat IPC: 1.12516 cumulative IPC: 1.12799 (Simulation time: 0 hr 7 min 9 sec) 
Heartbeat CPU  0 instructions:  160000000 cycles:  110194336 heartbeat IPC: 1.12693 cumulative IPC: 1.12797 (Simulation time: 0 hr 7 min 12 sec) 
Heartbeat CPU  0 instructions:  161000002 cycles:  111081053 heartbeat IPC: 1.12776 cumulative IPC: 1.12797 (Simulation time: 0 hr 7 min 15 sec) 
Heartbeat CPU  0 instructions:  162000001 cycles:  111967454 heartbeat IPC: 1.12816 cumulative IPC: 1.12797 (Simulation time: 0 hr 7 min 18 sec) 
Heartbeat CPU  0 instructions:  163000003 cycles:  112853907 heartbeat IPC: 1.12809 cumulative IPC: 1.12797 (Simulation time: 0 hr 7 min 21 sec) 
Heartbeat CPU  0 instructions:  164000000 cycles:  113736080 heartbeat IPC: 1.13356 cumulative IPC: 1.12806 (Simulation time: 0 hr 7 min 24 sec) 
Heartbeat CPU  0 instructions:  165000003 cycles:  114625140 heartbeat IPC: 1.12479 cumulative IPC: 1.12801 (Simulation time: 0 hr 7 min 27 sec) 
Heartbeat CPU  0 instructions:  166000001 cycles:  115513147 heartbeat IPC: 1.12611 cumulative IPC: 1.12798 (Simulation time: 0 hr 7 min 30 sec) 
Heartbeat CPU  0 instructions:  167000003 cycles:  116405842 heartbeat IPC: 1.12021 cumulative IPC: 1.12786 (Simulation time: 0 hr 7 min 33 sec) 
Heartbeat CPU  0 instructions:  168000000 cycles:  117288232 heartbeat IPC: 1.13328 cumulative IPC: 1.12794 (Simulation time: 0 hr 7 min 36 sec) 
Heartbeat CPU  0 instructions:  169000000 cycles:  118177853 heartbeat IPC: 1.12407 cumulative IPC: 1.12789 (Simulation time: 0 hr 7 min 39 sec) 
Heartbeat CPU  0 instructions:  170000002 cycles:  119064865 heartbeat IPC: 1.12738 cumulative IPC: 1.12788 (Simulation time: 0 hr 7 min 42 sec) 
Heartbeat CPU  0 instructions:  171000003 cycles:  119956369 heartbeat IPC: 1.12170 cumulative IPC: 1.12779 (Simulation time: 0 hr 7 min 45 sec) 
Heartbeat CPU  0 instructions:  172000000 cycles:  120842766 heartbeat IPC: 1.12816 cumulative IPC: 1.12780 (Simulation time: 0 hr 7 min 48 sec) 
Heartbeat CPU  0 instructions:  173000003 cycles:  121731020 heartbeat IPC: 1.12581 cumulative IPC: 1.12777 (Simulation time: 0 hr 7 min 51 sec) 
Heartbeat CPU  0 instructions:  174000000 cycles:  122625164 heartbeat IPC: 1.11838 cumulative IPC: 1.12764 (Simulation time: 0 hr 7 min 54 sec) 
Heartbeat CPU  0 instructions:  175000001 cycles:  123519680 heartbeat IPC: 1.11792 cumulative IPC: 1.12751 (Simulation time: 0 hr 7 min 57 sec) 
Heartbeat CPU  0 instructions:  176000000 cycles:  124409146 heartbeat IPC: 1.12427 cumulative IPC: 1.12747 (Simulation time: 0 hr 8 min 0 sec) 
Heartbeat CPU  0 instructions:  177000000 cycles:  125298422 heartbeat IPC: 1.12451 cumulative IPC: 1.12743 (Simulation time: 0 hr 8 min 3 sec) 
Heartbeat CPU  0 instructions:  178000003 cycles:  126190016 heartbeat IPC: 1.12159 cumulative IPC: 1.12736 (Simulation time: 0 hr 8 min 6 sec) 
Heartbeat CPU  0 instructions:  179000003 cycles:  127076418 heartbeat IPC: 1.12816 cumulative IPC: 1.12737 (Simulation time: 0 hr 8 min 9 sec) 
Heartbeat CPU  0 instructions:  180000000 cycles:  127962701 heartbeat IPC: 1.12830 cumulative IPC: 1.12738 (Simulation time: 0 hr 8 min 12 sec) 
Heartbeat CPU  0 instructions:  181000000 cycles:  128850400 heartbeat IPC: 1.12651 cumulative IPC: 1.12737 (Simulation time: 0 hr 8 min 15 sec) 
Heartbeat CPU  0 instructions:  182000003 cycles:  129733310 heartbeat IPC: 1.13262 cumulative IPC: 1.12743 (Simulation time: 0 hr 8 min 18 sec) 
Heartbeat CPU  0 instructions:  183000001 cycles:  130616064 heartbeat IPC: 1.13282 cumulative IPC: 1.12749 (Simulation time: 0 hr 8 min 21 sec) 
Heartbeat CPU  0 instructions:  184000000 cycles:  131500987 heartbeat IPC: 1.13004 cumulative IPC: 1.12753 (Simulation time: 0 hr 8 min 24 sec) 
Heartbeat CPU  0 instructions:  185000000 cycles:  132391435 heartbeat IPC: 1.12303 cumulative IPC: 1.12747 (Simulation time: 0 hr 8 min 27 sec) 
Heartbeat CPU  0 instructions:  186000001 cycles:  133283544 heartbeat IPC: 1.12094 cumulative IPC: 1.12740 (Simulation time: 0 hr 8 min 30 sec) 
Heartbeat CPU  0 instructions:  187000003 cycles:  134172950 heartbeat IPC: 1.12435 cumulative IPC: 1.12736 (Simulation time: 0 hr 8 min 33 sec) 
Heartbeat CPU  0 instructions:  188000000 cycles:  135059391 heartbeat IPC: 1.12810 cumulative IPC: 1.12737 (Simulation time: 0 hr 8 min 36 sec) 
Heartbeat CPU  0 instructions:  189000002 cycles:  135945073 heartbeat IPC: 1.12908 cumulative IPC: 1.12739 (Simulation time: 0 hr 8 min 39 sec) 
Heartbeat CPU  0 instructions:  190000003 cycles:  136830577 heartbeat IPC: 1.12930 cumulative IPC: 1.12741 (Simulation time: 0 hr 8 min 42 sec) 
Heartbeat CPU  0 instructions:  191000003 cycles:  137718451 heartbeat IPC: 1.12629 cumulative IPC: 1.12740 (Simulation time: 0 hr 8 min 45 sec) 
Heartbeat CPU  0 instructions:  192000000 cycles:  138606719 heartbeat IPC: 1.12578 cumulative IPC: 1.12738 (Simulation time: 0 hr 8 min 48 sec) 
Heartbeat CPU  0 instructions:  193000000 cycles:  139491714 heartbeat IPC: 1.12995 cumulative IPC: 1.12741 (Simulation time: 0 hr 8 min 51 sec) 
Heartbeat CPU  0 instructions:  194000002 cycles:  140377009 heartbeat IPC: 1.12957 cumulative IPC: 1.12743 (Simulation time: 0 hr 8 min 54 sec) 
Heartbeat CPU  0 instructions:  195000002 cycles:  141255158 heartbeat IPC: 1.13876 cumulative IPC: 1.12755 (Simulation time: 0 hr 8 min 57 sec) 
Heartbeat CPU  0 instructions:  196000000 cycles:  142139626 heartbeat IPC: 1.13062 cumulative IPC: 1.12758 (Simulation time: 0 hr 9 min 0 sec) 
Heartbeat CPU  0 instructions:  197000003 cycles:  143023648 heartbeat IPC: 1.13120 cumulative IPC: 1.12762 (Simulation time: 0 hr 9 min 3 sec) 
Heartbeat CPU  0 instructions:  198000000 cycles:  143911075 heartbeat IPC: 1.12685 cumulative IPC: 1.12761 (Simulation time: 0 hr 9 min 6 sec) 
Heartbeat CPU  0 instructions:  199000001 cycles:  144798485 heartbeat IPC: 1.12688 cumulative IPC: 1.12760 (Simulation time: 0 hr 9 min 9 sec) 
Heartbeat CPU  0 instructions:  200000000 cycles:  145685739 heartbeat IPC: 1.12707 cumulative IPC: 1.12760 (Simulation time: 0 hr 9 min 12 sec) 
Heartbeat CPU  0 instructions:  201000002 cycles:  146571612 heartbeat IPC: 1.12883 cumulative IPC: 1.12761 (Simulation time: 0 hr 9 min 15 sec) 
Heartbeat CPU  0 instructions:  202000002 cycles:  147458829 heartbeat IPC: 1.12712 cumulative IPC: 1.12760 (Simulation time: 0 hr 9 min 18 sec) 
Heartbeat CPU  0 instructions:  203000002 cycles:  148347800 heartbeat IPC: 1.12490 cumulative IPC: 1.12758 (Simulation time: 0 hr 9 min 21 sec) 
Heartbeat CPU  0 instructions:  204000000 cycles:  149236613 heartbeat IPC: 1.12509 cumulative IPC: 1.12755 (Simulation time: 0 hr 9 min 24 sec) 
Heartbeat CPU  0 instructions:  205000000 cycles:  150130590 heartbeat IPC: 1.11860 cumulative IPC: 1.12747 (Simulation time: 0 hr 9 min 27 sec) 
Heartbeat CPU  0 instructions:  206000001 cycles:  151020179 heartbeat IPC: 1.12412 cumulative IPC: 1.12744 (Simulation time: 0 hr 9 min 30 sec) 
Heartbeat CPU  0 instructions:  207000000 cycles:  151909692 heartbeat IPC: 1.12421 cumulative IPC: 1.12741 (Simulation time: 0 hr 9 min 33 sec) 
Heartbeat CPU  0 instructions:  208000000 cycles:  152798430 heartbeat IPC: 1.12519 cumulative IPC: 1.12739 (Simulation time: 0 hr 9 min 36 sec) 
Heartbeat CPU  0 instructions:  209000001 cycles:  153685956 heartbeat IPC: 1.12673 cumulative IPC: 1.12738 (Simulation time: 0 hr 9 min 39 sec) 
Heartbeat CPU  0 instructions:  210000000 cycles:  154571633 heartbeat IPC: 1.12908 cumulative IPC: 1.12739 (Simulation time: 0 hr 9 min 42 sec) 
Heartbeat CPU  0 instructions:  211000002 cycles:  155461399 heartbeat IPC: 1.12389 cumulative IPC: 1.12736 (Simulation time: 0 hr 9 min 45 sec) 
Heartbeat CPU  0 instructions:  212000000 cycles:  156348406 heartbeat IPC: 1.12738 cumulative IPC: 1.12736 (Simulation time: 0 hr 9 min 48 sec) 
Heartbeat CPU  0 instructions:  213000000 cycles:  157235348 heartbeat IPC: 1.12747 cumulative IPC: 1.12736 (Simulation time: 0 hr 9 min 51 sec) 
Heartbeat CPU  0 instructions:  214000002 cycles:  158116409 heartbeat IPC: 1.13500 cumulative IPC: 1.12743 (Simulation time: 0 hr 9 min 54 sec) 
Heartbeat CPU  0 instructions:  215000001 cycles:  158996611 heartbeat IPC: 1.13610 cumulative IPC: 1.12751 (Simulation time: 0 hr 9 min 57 sec) 
Heartbeat CPU  0 instructions:  216000000 cycles:  159885539 heartbeat IPC: 1.12495 cumulative IPC: 1.12748 (Simulation time: 0 hr 10 min 0 sec) 
Heartbeat CPU  0 instructions:  217000000 cycles:  160767849 heartbeat IPC: 1.13339 cumulative IPC: 1.12753 (Simulation time: 0 hr 10 min 3 sec) 
Heartbeat CPU  0 instructions:  218000000 cycles:  161652101 heartbeat IPC: 1.13090 cumulative IPC: 1.12756 (Simulation time: 0 hr 10 min 6 sec) 
Heartbeat CPU  0 instructions:  219000001 cycles:  162534562 heartbeat IPC: 1.13320 cumulative IPC: 1.12761 (Simulation time: 0 hr 10 min 9 sec) 
Heartbeat CPU  0 instructions:  220000000 cycles:  163422990 heartbeat IPC: 1.12558 cumulative IPC: 1.12759 (Simulation time: 0 hr 10 min 12 sec) 
Heartbeat CPU  0 instructions:  221000003 cycles:  164308456 heartbeat IPC: 1.12935 cumulative IPC: 1.12761 (Simulation time: 0 hr 10 min 15 sec) 
Heartbeat CPU  0 instructions:  222000002 cycles:  165194534 heartbeat IPC: 1.12857 cumulative IPC: 1.12761 (Simulation time: 0 hr 10 min 18 sec) 
Heartbeat CPU  0 instructions:  223000002 cycles:  166082307 heartbeat IPC: 1.12641 cumulative IPC: 1.12760 (Simulation time: 0 hr 10 min 21 sec) 
Heartbeat CPU  0 instructions:  224000000 cycles:  166971038 heartbeat IPC: 1.12520 cumulative IPC: 1.12759 (Simulation time: 0 hr 10 min 24 sec) 
Heartbeat CPU  0 instructions:  225000001 cycles:  167856298 heartbeat IPC: 1.12961 cumulative IPC: 1.12760 (Simulation time: 0 hr 10 min 27 sec) 
Heartbeat CPU  0 instructions:  226000000 cycles:  168742003 heartbeat IPC: 1.12904 cumulative IPC: 1.12761 (Simulation time: 0 hr 10 min 30 sec) 
Heartbeat CPU  0 instructions:  227000001 cycles:  169623959 heartbeat IPC: 1.13384 cumulative IPC: 1.12766 (Simulation time: 0 hr 10 min 33 sec) 
Heartbeat CPU  0 instructions:  228000000 cycles:  170507530 heartbeat IPC: 1.13177 cumulative IPC: 1.12769 (Simulation time: 0 hr 10 min 36 sec) 
Heartbeat CPU  0 instructions:  229000001 cycles:  171394332 heartbeat IPC: 1.12765 cumulative IPC: 1.12769 (Simulation time: 0 hr 10 min 39 sec) 
Heartbeat CPU  0 instructions:  230000001 cycles:  172284070 heartbeat IPC: 1.12393 cumulative IPC: 1.12766 (Simulation time: 0 hr 10 min 42 sec) 
Heartbeat CPU  0 instructions:  231000000 cycles:  173218830 heartbeat IPC: 1.06979 cumulative IPC: 1.12720 (Simulation time: 0 hr 10 min 46 sec) 
Heartbeat CPU  0 instructions:  232000000 cycles:  174127441 heartbeat IPC: 1.10058 cumulative IPC: 1.12699 (Simulation time: 0 hr 10 min 49 sec) 
Heartbeat CPU  0 instructions:  233000001 cycles:  175015805 heartbeat IPC: 1.12567 cumulative IPC: 1.12698 (Simulation time: 0 hr 10 min 52 sec) 
Heartbeat CPU  0 instructions:  234000003 cycles:  175903694 heartbeat IPC: 1.12627 cumulative IPC: 1.12698 (Simulation time: 0 hr 10 min 55 sec) 
Heartbeat CPU  0 instructions:  235000002 cycles:  176797552 heartbeat IPC: 1.11874 cumulative IPC: 1.12692 (Simulation time: 0 hr 10 min 58 sec) 
Heartbeat CPU  0 instructions:  236000000 cycles:  177686893 heartbeat IPC: 1.12443 cumulative IPC: 1.12690 (Simulation time: 0 hr 11 min 1 sec) 
Heartbeat CPU  0 instructions:  237000000 cycles:  178575531 heartbeat IPC: 1.12532 cumulative IPC: 1.12689 (Simulation time: 0 hr 11 min 4 sec) 
Heartbeat CPU  0 instructions:  238000001 cycles:  179460587 heartbeat IPC: 1.12987 cumulative IPC: 1.12691 (Simulation time: 0 hr 11 min 7 sec) 
Heartbeat CPU  0 instructions:  239000000 cycles:  180346978 heartbeat IPC: 1.12817 cumulative IPC: 1.12692 (Simulation time: 0 hr 11 min 10 sec) 
Heartbeat CPU  0 instructions:  240000000 cycles:  181233394 heartbeat IPC: 1.12814 cumulative IPC: 1.12693 (Simulation time: 0 hr 11 min 13 sec) 
Heartbeat CPU  0 instructions:  241000001 cycles:  182116001 heartbeat IPC: 1.13301 cumulative IPC: 1.12697 (Simulation time: 0 hr 11 min 16 sec) 
Heartbeat CPU  0 instructions:  242000003 cycles:  183002287 heartbeat IPC: 1.12831 cumulative IPC: 1.12698 (Simulation time: 0 hr 11 min 19 sec) 
Heartbeat CPU  0 instructions:  243000002 cycles:  183888204 heartbeat IPC: 1.12877 cumulative IPC: 1.12699 (Simulation time: 0 hr 11 min 22 sec) 
Heartbeat CPU  0 instructions:  244000000 cycles:  184772482 heartbeat IPC: 1.13086 cumulative IPC: 1.12702 (Simulation time: 0 hr 11 min 25 sec) 
Heartbeat CPU  0 instructions:  245000003 cycles:  185668466 heartbeat IPC: 1.11609 cumulative IPC: 1.12694 (Simulation time: 0 hr 11 min 28 sec) 
Heartbeat CPU  0 instructions:  246000001 cycles:  186557819 heartbeat IPC: 1.12441 cumulative IPC: 1.12692 (Simulation time: 0 hr 11 min 31 sec) 
Heartbeat CPU  0 instructions:  247000002 cycles:  187444498 heartbeat IPC: 1.12780 cumulative IPC: 1.12693 (Simulation time: 0 hr 11 min 34 sec) 
Heartbeat CPU  0 instructions:  248000000 cycles:  188334597 heartbeat IPC: 1.12347 cumulative IPC: 1.12691 (Simulation time: 0 hr 11 min 37 sec) 
Heartbeat CPU  0 instructions:  249000000 cycles:  189220525 heartbeat IPC: 1.12876 cumulative IPC: 1.12692 (Simulation time: 0 hr 11 min 40 sec) 
Heartbeat CPU  0 instructions:  250000003 cycles:  190106455 heartbeat IPC: 1.12876 cumulative IPC: 1.12693 (Simulation time: 0 hr 11 min 43 sec) 
Heartbeat CPU  0 instructions:  251000002 cycles:  190991239 heartbeat IPC: 1.13022 cumulative IPC: 1.12695 (Simulation time: 0 hr 11 min 46 sec) 
Heartbeat CPU  0 instructions:  252000000 cycles:  191880862 heartbeat IPC: 1.12407 cumulative IPC: 1.12693 (Simulation time: 0 hr 11 min 49 sec) 
Heartbeat CPU  0 instructions:  253000003 cycles:  192764589 heartbeat IPC: 1.13157 cumulative IPC: 1.12696 (Simulation time: 0 hr 11 min 52 sec) 
Heartbeat CPU  0 instructions:  254000001 cycles:  193653849 heartbeat IPC: 1.12453 cumulative IPC: 1.12695 (Simulation time: 0 hr 11 min 55 sec) 
Heartbeat CPU  0 instructions:  255000000 cycles:  194541400 heartbeat IPC: 1.12669 cumulative IPC: 1.12695 (Simulation time: 0 hr 11 min 58 sec) 
Heartbeat CPU  0 instructions:  256000000 cycles:  195425364 heartbeat IPC: 1.13127 cumulative IPC: 1.12697 (Simulation time: 0 hr 12 min 1 sec) 
Heartbeat CPU  0 instructions:  257000000 cycles:  196309859 heartbeat IPC: 1.13059 cumulative IPC: 1.12700 (Simulation time: 0 hr 12 min 4 sec) 
Heartbeat CPU  0 instructions:  258000000 cycles:  197197156 heartbeat IPC: 1.12702 cumulative IPC: 1.12700 (Simulation time: 0 hr 12 min 7 sec) 
Heartbeat CPU  0 instructions:  259000000 cycles:  198083004 heartbeat IPC: 1.12886 cumulative IPC: 1.12701 (Simulation time: 0 hr 12 min 10 sec) 
Heartbeat CPU  0 instructions:  260000000 cycles:  198966966 heartbeat IPC: 1.13127 cumulative IPC: 1.12704 (Simulation time: 0 hr 12 min 13 sec) 
Heartbeat CPU  0 instructions:  261000001 cycles:  199854770 heartbeat IPC: 1.12638 cumulative IPC: 1.12703 (Simulation time: 0 hr 12 min 16 sec) 
Heartbeat CPU  0 instructions:  262000003 cycles:  200744028 heartbeat IPC: 1.12454 cumulative IPC: 1.12702 (Simulation time: 0 hr 12 min 19 sec) 
Heartbeat CPU  0 instructions:  263000001 cycles:  201630917 heartbeat IPC: 1.12753 cumulative IPC: 1.12702 (Simulation time: 0 hr 12 min 22 sec) 
Heartbeat CPU  0 instructions:  264000000 cycles:  202515645 heartbeat IPC: 1.13029 cumulative IPC: 1.12704 (Simulation time: 0 hr 12 min 25 sec) 
Heartbeat CPU  0 instructions:  265000003 cycles:  203403692 heartbeat IPC: 1.12607 cumulative IPC: 1.12703 (Simulation time: 0 hr 12 min 28 sec) 
Heartbeat CPU  0 instructions:  266000001 cycles:  204289307 heartbeat IPC: 1.12916 cumulative IPC: 1.12705 (Simulation time: 0 hr 12 min 31 sec) 
Heartbeat CPU  0 instructions:  267000001 cycles:  205175305 heartbeat IPC: 1.12867 cumulative IPC: 1.12706 (Simulation time: 0 hr 12 min 34 sec) 
Heartbeat CPU  0 instructions:  268000000 cycles:  206062419 heartbeat IPC: 1.12725 cumulative IPC: 1.12706 (Simulation time: 0 hr 12 min 37 sec) 
Heartbeat CPU  0 instructions:  269000001 cycles:  206944620 heartbeat IPC: 1.13353 cumulative IPC: 1.12709 (Simulation time: 0 hr 12 min 40 sec) 
Heartbeat CPU  0 instructions:  270000003 cycles:  207825568 heartbeat IPC: 1.13514 cumulative IPC: 1.12714 (Simulation time: 0 hr 12 min 43 sec) 
Heartbeat CPU  0 instructions:  271000002 cycles:  208709426 heartbeat IPC: 1.13140 cumulative IPC: 1.12717 (Simulation time: 0 hr 12 min 46 sec) 
Heartbeat CPU  0 instructions:  272000000 cycles:  209596087 heartbeat IPC: 1.12782 cumulative IPC: 1.12717 (Simulation time: 0 hr 12 min 49 sec) 
Heartbeat CPU  0 instructions:  273000000 cycles:  210490936 heartbeat IPC: 1.11751 cumulative IPC: 1.12711 (Simulation time: 0 hr 12 min 52 sec) 
Heartbeat CPU  0 instructions:  274000002 cycles:  211386926 heartbeat IPC: 1.11609 cumulative IPC: 1.12705 (Simulation time: 0 hr 12 min 55 sec) 
Heartbeat CPU  0 instructions:  275000003 cycles:  212277863 heartbeat IPC: 1.12241 cumulative IPC: 1.12702 (Simulation time: 0 hr 12 min 58 sec) 
Heartbeat CPU  0 instructions:  276000000 cycles:  213168945 heartbeat IPC: 1.12223 cumulative IPC: 1.12700 (Simulation time: 0 hr 13 min 1 sec) 
Heartbeat CPU  0 instructions:  277000000 cycles:  214060637 heartbeat IPC: 1.12146 cumulative IPC: 1.12696 (Simulation time: 0 hr 13 min 4 sec) 
Heartbeat CPU  0 instructions:  278000000 cycles:  214946528 heartbeat IPC: 1.12881 cumulative IPC: 1.12697 (Simulation time: 0 hr 13 min 7 sec) 
Heartbeat CPU  0 instructions:  279000001 cycles:  215834236 heartbeat IPC: 1.12650 cumulative IPC: 1.12697 (Simulation time: 0 hr 13 min 10 sec) 
Heartbeat CPU  0 instructions:  280000000 cycles:  216722827 heartbeat IPC: 1.12538 cumulative IPC: 1.12696 (Simulation time: 0 hr 13 min 13 sec) 
Heartbeat CPU  0 instructions:  281000000 cycles:  217609297 heartbeat IPC: 1.12807 cumulative IPC: 1.12697 (Simulation time: 0 hr 13 min 16 sec) 
Heartbeat CPU  0 instructions:  282000001 cycles:  218488987 heartbeat IPC: 1.13677 cumulative IPC: 1.12702 (Simulation time: 0 hr 13 min 19 sec) 
Heartbeat CPU  0 instructions:  283000001 cycles:  219375384 heartbeat IPC: 1.12816 cumulative IPC: 1.12703 (Simulation time: 0 hr 13 min 22 sec) 
Heartbeat CPU  0 instructions:  284000000 cycles:  220264043 heartbeat IPC: 1.12529 cumulative IPC: 1.12702 (Simulation time: 0 hr 13 min 25 sec) 
Heartbeat CPU  0 instructions:  285000001 cycles:  221147867 heartbeat IPC: 1.13145 cumulative IPC: 1.12704 (Simulation time: 0 hr 13 min 28 sec) 
Heartbeat CPU  0 instructions:  286000003 cycles:  222038137 heartbeat IPC: 1.12326 cumulative IPC: 1.12702 (Simulation time: 0 hr 13 min 31 sec) 
Heartbeat CPU  0 instructions:  287000003 cycles:  222930530 heartbeat IPC: 1.12058 cumulative IPC: 1.12699 (Simulation time: 0 hr 13 min 34 sec) 
Heartbeat CPU  0 instructions:  288000000 cycles:  223821804 heartbeat IPC: 1.12199 cumulative IPC: 1.12696 (Simulation time: 0 hr 13 min 37 sec) 
Heartbeat CPU  0 instructions:  289000003 cycles:  224707445 heartbeat IPC: 1.12913 cumulative IPC: 1.12697 (Simulation time: 0 hr 13 min 40 sec) 
Heartbeat CPU  0 instructions:  290000001 cycles:  225598228 heartbeat IPC: 1.12261 cumulative IPC: 1.12695 (Simulation time: 0 hr 13 min 43 sec) 
Heartbeat CPU  0 instructions:  291000001 cycles:  226484821 heartbeat IPC: 1.12791 cumulative IPC: 1.12695 (Simulation time: 0 hr 13 min 46 sec) 
Heartbeat CPU  0 instructions:  292000000 cycles:  227377040 heartbeat IPC: 1.12080 cumulative IPC: 1.12692 (Simulation time: 0 hr 13 min 49 sec) 
Heartbeat CPU  0 instructions:  293000002 cycles:  228264729 heartbeat IPC: 1.12652 cumulative IPC: 1.12692 (Simulation time: 0 hr 13 min 52 sec) 
Heartbeat CPU  0 instructions:  294000003 cycles:  229152968 heartbeat IPC: 1.12582 cumulative IPC: 1.12691 (Simulation time: 0 hr 13 min 55 sec) 
Heartbeat CPU  0 instructions:  295000000 cycles:  230038448 heartbeat IPC: 1.12933 cumulative IPC: 1.12693 (Simulation time: 0 hr 13 min 58 sec) 
Heartbeat CPU  0 instructions:  296000000 cycles:  230926069 heartbeat IPC: 1.12661 cumulative IPC: 1.12693 (Simulation time: 0 hr 14 min 1 sec) 
Heartbeat CPU  0 instructions:  297000001 cycles:  231812413 heartbeat IPC: 1.12823 cumulative IPC: 1.12693 (Simulation time: 0 hr 14 min 4 sec) 
Heartbeat CPU  0 instructions:  298000002 cycles:  232699537 heartbeat IPC: 1.12724 cumulative IPC: 1.12693 (Simulation time: 0 hr 14 min 7 sec) 
Heartbeat CPU  0 instructions:  299000001 cycles:  233589594 heartbeat IPC: 1.12352 cumulative IPC: 1.12692 (Simulation time: 0 hr 14 min 10 sec) 
Heartbeat CPU  0 instructions:  300000000 cycles:  234484319 heartbeat IPC: 1.11766 cumulative IPC: 1.12687 (Simulation time: 0 hr 14 min 13 sec) 
Heartbeat CPU  0 instructions:  301000002 cycles:  235370587 heartbeat IPC: 1.12833 cumulative IPC: 1.12688 (Simulation time: 0 hr 14 min 16 sec) 
Heartbeat CPU  0 instructions:  302000000 cycles:  236266275 heartbeat IPC: 1.11646 cumulative IPC: 1.12683 (Simulation time: 0 hr 14 min 19 sec) 
Heartbeat CPU  0 instructions:  303000003 cycles:  237159422 heartbeat IPC: 1.11964 cumulative IPC: 1.12679 (Simulation time: 0 hr 14 min 23 sec) 
Heartbeat CPU  0 instructions:  304000000 cycles:  238052193 heartbeat IPC: 1.12010 cumulative IPC: 1.12676 (Simulation time: 0 hr 14 min 26 sec) 
Heartbeat CPU  0 instructions:  305000001 cycles:  238937424 heartbeat IPC: 1.12965 cumulative IPC: 1.12677 (Simulation time: 0 hr 14 min 29 sec) 
Heartbeat CPU  0 instructions:  306000002 cycles:  239822245 heartbeat IPC: 1.13017 cumulative IPC: 1.12679 (Simulation time: 0 hr 14 min 32 sec) 
Heartbeat CPU  0 instructions:  307000001 cycles:  240708359 heartbeat IPC: 1.12852 cumulative IPC: 1.12680 (Simulation time: 0 hr 14 min 35 sec) 
Heartbeat CPU  0 instructions:  308000000 cycles:  241591331 heartbeat IPC: 1.13254 cumulative IPC: 1.12682 (Simulation time: 0 hr 14 min 38 sec) 
Heartbeat CPU  0 instructions:  309000003 cycles:  242478878 heartbeat IPC: 1.12670 cumulative IPC: 1.12682 (Simulation time: 0 hr 14 min 41 sec) 
Heartbeat CPU  0 instructions:  310000000 cycles:  243364668 heartbeat IPC: 1.12893 cumulative IPC: 1.12683 (Simulation time: 0 hr 14 min 44 sec) 
Heartbeat CPU  0 instructions:  311000000 cycles:  244255608 heartbeat IPC: 1.12241 cumulative IPC: 1.12681 (Simulation time: 0 hr 14 min 47 sec) 
Heartbeat CPU  0 instructions:  312000000 cycles:  245138569 heartbeat IPC: 1.13255 cumulative IPC: 1.12684 (Simulation time: 0 hr 14 min 50 sec) 
Heartbeat CPU  0 instructions:  313000001 cycles:  246026011 heartbeat IPC: 1.12684 cumulative IPC: 1.12684 (Simulation time: 0 hr 14 min 53 sec) 
Heartbeat CPU  0 instructions:  314000002 cycles:  246911317 heartbeat IPC: 1.12955 cumulative IPC: 1.12685 (Simulation time: 0 hr 14 min 56 sec) 
Heartbeat CPU  0 instructions:  315000003 cycles:  247796462 heartbeat IPC: 1.12976 cumulative IPC: 1.12686 (Simulation time: 0 hr 14 min 59 sec) 
Heartbeat CPU  0 instructions:  316000000 cycles:  248682505 heartbeat IPC: 1.12861 cumulative IPC: 1.12687 (Simulation time: 0 hr 15 min 2 sec) 
Heartbeat CPU  0 instructions:  317000000 cycles:  249566605 heartbeat IPC: 1.13109 cumulative IPC: 1.12689 (Simulation time: 0 hr 15 min 5 sec) 
Heartbeat CPU  0 instructions:  318000000 cycles:  250451952 heartbeat IPC: 1.12950 cumulative IPC: 1.12690 (Simulation time: 0 hr 15 min 8 sec) 
Heartbeat CPU  0 instructions:  319000001 cycles:  251339371 heartbeat IPC: 1.12686 cumulative IPC: 1.12690 (Simulation time: 0 hr 15 min 11 sec) 
Heartbeat CPU  0 instructions:  320000000 cycles:  252223530 heartbeat IPC: 1.13102 cumulative IPC: 1.12692 (Simulation time: 0 hr 15 min 14 sec) 
Heartbeat CPU  0 instructions:  321000003 cycles:  253107923 heartbeat IPC: 1.13072 cumulative IPC: 1.12694 (Simulation time: 0 hr 15 min 17 sec) 
Heartbeat CPU  0 instructions:  322000002 cycles:  253997120 heartbeat IPC: 1.12461 cumulative IPC: 1.12693 (Simulation time: 0 hr 15 min 20 sec) 
Heartbeat CPU  0 instructions:  323000003 cycles:  254880706 heartbeat IPC: 1.13175 cumulative IPC: 1.12695 (Simulation time: 0 hr 15 min 23 sec) 
Heartbeat CPU  0 instructions:  324000000 cycles:  255760673 heartbeat IPC: 1.13640 cumulative IPC: 1.12699 (Simulation time: 0 hr 15 min 26 sec) 
Heartbeat CPU  0 instructions:  325000002 cycles:  256645706 heartbeat IPC: 1.12990 cumulative IPC: 1.12701 (Simulation time: 0 hr 15 min 29 sec) 
Heartbeat CPU  0 instructions:  326000000 cycles:  257534967 heartbeat IPC: 1.12453 cumulative IPC: 1.12699 (Simulation time: 0 hr 15 min 32 sec) 
Heartbeat CPU  0 instructions:  327000000 cycles:  258419962 heartbeat IPC: 1.12995 cumulative IPC: 1.12701 (Simulation time: 0 hr 15 min 35 sec) 
Heartbeat CPU  0 instructions:  328000000 cycles:  259305865 heartbeat IPC: 1.12879 cumulative IPC: 1.12701 (Simulation time: 0 hr 15 min 38 sec) 
Heartbeat CPU  0 instructions:  329000001 cycles:  260196508 heartbeat IPC: 1.12279 cumulative IPC: 1.12700 (Simulation time: 0 hr 15 min 41 sec) 
Heartbeat CPU  0 instructions:  330000000 cycles:  261085465 heartbeat IPC: 1.12491 cumulative IPC: 1.12699 (Simulation time: 0 hr 15 min 44 sec) 
Heartbeat CPU  0 instructions:  331000001 cycles:  261968184 heartbeat IPC: 1.13286 cumulative IPC: 1.12701 (Simulation time: 0 hr 15 min 47 sec) 
Heartbeat CPU  0 instructions:  332000000 cycles:  262854293 heartbeat IPC: 1.12853 cumulative IPC: 1.12702 (Simulation time: 0 hr 15 min 50 sec) 
Heartbeat CPU  0 instructions:  333000003 cycles:  263742639 heartbeat IPC: 1.12569 cumulative IPC: 1.12701 (Simulation time: 0 hr 15 min 53 sec) 
Heartbeat CPU  0 instructions:  334000002 cycles:  264625076 heartbeat IPC: 1.13322 cumulative IPC: 1.12704 (Simulation time: 0 hr 15 min 56 sec) 
Heartbeat CPU  0 instructions:  335000003 cycles:  265514807 heartbeat IPC: 1.12394 cumulative IPC: 1.12703 (Simulation time: 0 hr 15 min 59 sec) 
Heartbeat CPU  0 instructions:  336000000 cycles:  266403212 heartbeat IPC: 1.12561 cumulative IPC: 1.12702 (Simulation time: 0 hr 16 min 2 sec) 
Heartbeat CPU  0 instructions:  337000003 cycles:  267290960 heartbeat IPC: 1.12645 cumulative IPC: 1.12702 (Simulation time: 0 hr 16 min 5 sec) 
Heartbeat CPU  0 instructions:  338000000 cycles:  268171971 heartbeat IPC: 1.13506 cumulative IPC: 1.12705 (Simulation time: 0 hr 16 min 8 sec) 
Heartbeat CPU  0 instructions:  339000000 cycles:  269057521 heartbeat IPC: 1.12924 cumulative IPC: 1.12706 (Simulation time: 0 hr 16 min 11 sec) 
Heartbeat CPU  0 instructions:  340000000 cycles:  269943356 heartbeat IPC: 1.12888 cumulative IPC: 1.12707 (Simulation time: 0 hr 16 min 14 sec) 
Heartbeat CPU  0 instructions:  341000003 cycles:  270835097 heartbeat IPC: 1.12141 cumulative IPC: 1.12704 (Simulation time: 0 hr 16 min 17 sec) 
Heartbeat CPU  0 instructions:  342000002 cycles:  271728505 heartbeat IPC: 1.11931 cumulative IPC: 1.12701 (Simulation time: 0 hr 16 min 20 sec) 
Heartbeat CPU  0 instructions:  343000000 cycles:  272619589 heartbeat IPC: 1.12223 cumulative IPC: 1.12699 (Simulation time: 0 hr 16 min 23 sec) 
Heartbeat CPU  0 instructions:  344000000 cycles:  273505509 heartbeat IPC: 1.12877 cumulative IPC: 1.12700 (Simulation time: 0 hr 16 min 26 sec) 
Heartbeat CPU  0 instructions:  345000001 cycles:  274398105 heartbeat IPC: 1.12033 cumulative IPC: 1.12697 (Simulation time: 0 hr 16 min 29 sec) 
Heartbeat CPU  0 instructions:  346000000 cycles:  275282201 heartbeat IPC: 1.13110 cumulative IPC: 1.12699 (Simulation time: 0 hr 16 min 32 sec) 
Heartbeat CPU  0 instructions:  347000002 cycles:  276166571 heartbeat IPC: 1.13075 cumulative IPC: 1.12700 (Simulation time: 0 hr 16 min 35 sec) 
Heartbeat CPU  0 instructions:  348000000 cycles:  277051315 heartbeat IPC: 1.13027 cumulative IPC: 1.12702 (Simulation time: 0 hr 16 min 38 sec) 
Heartbeat CPU  0 instructions:  349000003 cycles:  277938363 heartbeat IPC: 1.12734 cumulative IPC: 1.12702 (Simulation time: 0 hr 16 min 41 sec) 
Heartbeat CPU  0 instructions:  350000002 cycles:  278817624 heartbeat IPC: 1.13732 cumulative IPC: 1.12706 (Simulation time: 0 hr 16 min 44 sec) 
Heartbeat CPU  0 instructions:  351000003 cycles:  279704405 heartbeat IPC: 1.12768 cumulative IPC: 1.12706 (Simulation time: 0 hr 16 min 47 sec) 
Heartbeat CPU  0 instructions:  352000000 cycles:  280590043 heartbeat IPC: 1.12913 cumulative IPC: 1.12707 (Simulation time: 0 hr 16 min 50 sec) 
Heartbeat CPU  0 instructions:  353000001 cycles:  281478264 heartbeat IPC: 1.12585 cumulative IPC: 1.12707 (Simulation time: 0 hr 16 min 53 sec) 
Heartbeat CPU  0 instructions:  354000001 cycles:  282364153 heartbeat IPC: 1.12881 cumulative IPC: 1.12707 (Simulation time: 0 hr 16 min 56 sec) 
Heartbeat CPU  0 instructions:  355000001 cycles:  283249709 heartbeat IPC: 1.12923 cumulative IPC: 1.12708 (Simulation time: 0 hr 16 min 59 sec) 
Heartbeat CPU  0 instructions:  356000000 cycles:  284134227 heartbeat IPC: 1.13056 cumulative IPC: 1.12709 (Simulation time: 0 hr 17 min 2 sec) 
Heartbeat CPU  0 instructions:  357000003 cycles:  285018378 heartbeat IPC: 1.13103 cumulative IPC: 1.12711 (Simulation time: 0 hr 17 min 5 sec) 
Heartbeat CPU  0 instructions:  358000000 cycles:  285903609 heartbeat IPC: 1.12965 cumulative IPC: 1.12712 (Simulation time: 0 hr 17 min 8 sec) 
Heartbeat CPU  0 instructions:  359000003 cycles:  286784187 heartbeat IPC: 1.13562 cumulative IPC: 1.12715 (Simulation time: 0 hr 17 min 11 sec) 
Heartbeat CPU  0 instructions:  360000000 cycles:  287668977 heartbeat IPC: 1.13021 cumulative IPC: 1.12716 (Simulation time: 0 hr 17 min 14 sec) 
Heartbeat CPU  0 instructions:  361000001 cycles:  288549158 heartbeat IPC: 1.13613 cumulative IPC: 1.12720 (Simulation time: 0 hr 17 min 17 sec) 
Heartbeat CPU  0 instructions:  362000001 cycles:  289431187 heartbeat IPC: 1.13375 cumulative IPC: 1.12722 (Simulation time: 0 hr 17 min 20 sec) 
Heartbeat CPU  0 instructions:  363000001 cycles:  290311933 heartbeat IPC: 1.13540 cumulative IPC: 1.12725 (Simulation time: 0 hr 17 min 23 sec) 
Heartbeat CPU  0 instructions:  364000000 cycles:  291196443 heartbeat IPC: 1.13057 cumulative IPC: 1.12727 (Simulation time: 0 hr 17 min 26 sec) 
Heartbeat CPU  0 instructions:  365000003 cycles:  292079053 heartbeat IPC: 1.13301 cumulative IPC: 1.12729 (Simulation time: 0 hr 17 min 29 sec) 
Heartbeat CPU  0 instructions:  366000003 cycles:  292960369 heartbeat IPC: 1.13467 cumulative IPC: 1.12732 (Simulation time: 0 hr 17 min 32 sec) 
Heartbeat CPU  0 instructions:  367000001 cycles:  293848092 heartbeat IPC: 1.12648 cumulative IPC: 1.12731 (Simulation time: 0 hr 17 min 35 sec) 
Heartbeat CPU  0 instructions:  368000000 cycles:  294737852 heartbeat IPC: 1.12390 cumulative IPC: 1.12730 (Simulation time: 0 hr 17 min 38 sec) 
Heartbeat CPU  0 instructions:  369000002 cycles:  295624846 heartbeat IPC: 1.12741 cumulative IPC: 1.12730 (Simulation time: 0 hr 17 min 41 sec) 
Heartbeat CPU  0 instructions:  370000001 cycles:  296508505 heartbeat IPC: 1.13166 cumulative IPC: 1.12732 (Simulation time: 0 hr 17 min 44 sec) 
Heartbeat CPU  0 instructions:  371000001 cycles:  297396551 heartbeat IPC: 1.12607 cumulative IPC: 1.12731 (Simulation time: 0 hr 17 min 48 sec) 
Heartbeat CPU  0 instructions:  372000000 cycles:  298281244 heartbeat IPC: 1.13033 cumulative IPC: 1.12732 (Simulation time: 0 hr 17 min 51 sec) 
Heartbeat CPU  0 instructions:  373000000 cycles:  299166224 heartbeat IPC: 1.12997 cumulative IPC: 1.12733 (Simulation time: 0 hr 17 min 54 sec) 
Heartbeat CPU  0 instructions:  374000003 cycles:  300054258 heartbeat IPC: 1.12609 cumulative IPC: 1.12733 (Simulation time: 0 hr 17 min 57 sec) 
Heartbeat CPU  0 instructions:  375000003 cycles:  300940007 heartbeat IPC: 1.12899 cumulative IPC: 1.12733 (Simulation time: 0 hr 18 min 0 sec) 
Heartbeat CPU  0 instructions:  376000000 cycles:  301828182 heartbeat IPC: 1.12590 cumulative IPC: 1.12733 (Simulation time: 0 hr 18 min 3 sec) 
Heartbeat CPU  0 instructions:  377000000 cycles:  302715523 heartbeat IPC: 1.12696 cumulative IPC: 1.12733 (Simulation time: 0 hr 18 min 6 sec) 
Heartbeat CPU  0 instructions:  378000002 cycles:  303601094 heartbeat IPC: 1.12922 cumulative IPC: 1.12733 (Simulation time: 0 hr 18 min 9 sec) 
Heartbeat CPU  0 instructions:  379000001 cycles:  304485619 heartbeat IPC: 1.13055 cumulative IPC: 1.12735 (Simulation time: 0 hr 18 min 12 sec) 
Heartbeat CPU  0 instructions:  380000000 cycles:  305366829 heartbeat IPC: 1.13480 cumulative IPC: 1.12737 (Simulation time: 0 hr 18 min 15 sec) 
Heartbeat CPU  0 instructions:  381000002 cycles:  306254188 heartbeat IPC: 1.12694 cumulative IPC: 1.12737 (Simulation time: 0 hr 18 min 18 sec) 
Heartbeat CPU  0 instructions:  382000000 cycles:  307192139 heartbeat IPC: 1.06615 cumulative IPC: 1.12714 (Simulation time: 0 hr 18 min 21 sec) 
Heartbeat CPU  0 instructions:  383000002 cycles:  308099748 heartbeat IPC: 1.10180 cumulative IPC: 1.12705 (Simulation time: 0 hr 18 min 24 sec) 
Heartbeat CPU  0 instructions:  384000000 cycles:  308980606 heartbeat IPC: 1.13525 cumulative IPC: 1.12708 (Simulation time: 0 hr 18 min 27 sec) 
Heartbeat CPU  0 instructions:  385000000 cycles:  309865184 heartbeat IPC: 1.13048 cumulative IPC: 1.12709 (Simulation time: 0 hr 18 min 30 sec) 
Heartbeat CPU  0 instructions:  386000002 cycles:  310752313 heartbeat IPC: 1.12723 cumulative IPC: 1.12709 (Simulation time: 0 hr 18 min 33 sec) 
Heartbeat CPU  0 instructions:  387000000 cycles:  311641810 heartbeat IPC: 1.12423 cumulative IPC: 1.12708 (Simulation time: 0 hr 18 min 36 sec) 
Heartbeat CPU  0 instructions:  388000000 cycles:  312526727 heartbeat IPC: 1.13005 cumulative IPC: 1.12709 (Simulation time: 0 hr 18 min 39 sec) 
Heartbeat CPU  0 instructions:  389000002 cycles:  313411699 heartbeat IPC: 1.12998 cumulative IPC: 1.12710 (Simulation time: 0 hr 18 min 42 sec) 
Heartbeat CPU  0 instructions:  390000001 cycles:  314298768 heartbeat IPC: 1.12731 cumulative IPC: 1.12710 (Simulation time: 0 hr 18 min 45 sec) 
Heartbeat CPU  0 instructions:  391000002 cycles:  315183140 heartbeat IPC: 1.13075 cumulative IPC: 1.12711 (Simulation time: 0 hr 18 min 48 sec) 
Heartbeat CPU  0 instructions:  392000000 cycles:  316067929 heartbeat IPC: 1.13021 cumulative IPC: 1.12712 (Simulation time: 0 hr 18 min 51 sec) 
Heartbeat CPU  0 instructions:  393000003 cycles:  316953337 heartbeat IPC: 1.12943 cumulative IPC: 1.12713 (Simulation time: 0 hr 18 min 54 sec) 
Heartbeat CPU  0 instructions:  394000003 cycles:  317837333 heartbeat IPC: 1.13123 cumulative IPC: 1.12715 (Simulation time: 0 hr 18 min 57 sec) 
Heartbeat CPU  0 instructions:  395000000 cycles:  318717140 heartbeat IPC: 1.13661 cumulative IPC: 1.12718 (Simulation time: 0 hr 19 min 0 sec) 
Heartbeat CPU  0 instructions:  396000000 cycles:  319598795 heartbeat IPC: 1.13423 cumulative IPC: 1.12720 (Simulation time: 0 hr 19 min 3 sec) 
Heartbeat CPU  0 instructions:  397000003 cycles:  320480255 heartbeat IPC: 1.13448 cumulative IPC: 1.12723 (Simulation time: 0 hr 19 min 6 sec) 
Heartbeat CPU  0 instructions:  398000001 cycles:  321364303 heartbeat IPC: 1.13116 cumulative IPC: 1.12724 (Simulation time: 0 hr 19 min 9 sec) 
Heartbeat CPU  0 instructions:  399000002 cycles:  322242794 heartbeat IPC: 1.13832 cumulative IPC: 1.12728 (Simulation time: 0 hr 19 min 12 sec) 
Heartbeat CPU  0 instructions:  400000000 cycles:  323134476 heartbeat IPC: 1.12147 cumulative IPC: 1.12726 (Simulation time: 0 hr 19 min 15 sec) 
Heartbeat CPU  0 instructions:  401000002 cycles:  324022240 heartbeat IPC: 1.12643 cumulative IPC: 1.12725 (Simulation time: 0 hr 19 min 18 sec) 
Heartbeat CPU  0 instructions:  402000003 cycles:  324912461 heartbeat IPC: 1.12332 cumulative IPC: 1.12724 (Simulation time: 0 hr 19 min 21 sec) 
Heartbeat CPU  0 instructions:  403000000 cycles:  325803435 heartbeat IPC: 1.12236 cumulative IPC: 1.12722 (Simulation time: 0 hr 19 min 24 sec) 
Heartbeat CPU  0 instructions:  404000000 cycles:  326689707 heartbeat IPC: 1.12832 cumulative IPC: 1.12723 (Simulation time: 0 hr 19 min 27 sec) 
Heartbeat CPU  0 instructions:  405000001 cycles:  327577470 heartbeat IPC: 1.12643 cumulative IPC: 1.12723 (Simulation time: 0 hr 19 min 30 sec) 
Heartbeat CPU  0 instructions:  406000001 cycles:  328465295 heartbeat IPC: 1.12635 cumulative IPC: 1.12722 (Simulation time: 0 hr 19 min 33 sec) 
Heartbeat CPU  0 instructions:  407000001 cycles:  329351545 heartbeat IPC: 1.12835 cumulative IPC: 1.12723 (Simulation time: 0 hr 19 min 36 sec) 
Heartbeat CPU  0 instructions:  408000000 cycles:  330237332 heartbeat IPC: 1.12894 cumulative IPC: 1.12723 (Simulation time: 0 hr 19 min 39 sec) 
Heartbeat CPU  0 instructions:  409000000 cycles:  331125105 heartbeat IPC: 1.12641 cumulative IPC: 1.12723 (Simulation time: 0 hr 19 min 42 sec) 
Heartbeat CPU  0 instructions:  410000002 cycles:  332008425 heartbeat IPC: 1.13209 cumulative IPC: 1.12724 (Simulation time: 0 hr 19 min 45 sec) 
Heartbeat CPU  0 instructions:  411000000 cycles:  332892231 heartbeat IPC: 1.13147 cumulative IPC: 1.12726 (Simulation time: 0 hr 19 min 48 sec) 
Heartbeat CPU  0 instructions:  412000000 cycles:  333777514 heartbeat IPC: 1.12958 cumulative IPC: 1.12727 (Simulation time: 0 hr 19 min 51 sec) 
Heartbeat CPU  0 instructions:  413000003 cycles:  334666011 heartbeat IPC: 1.12550 cumulative IPC: 1.12726 (Simulation time: 0 hr 19 min 54 sec) 
Heartbeat CPU  0 instructions:  414000003 cycles:  335551314 heartbeat IPC: 1.12956 cumulative IPC: 1.12727 (Simulation time: 0 hr 19 min 57 sec) 
Heartbeat CPU  0 instructions:  415000002 cycles:  336437151 heartbeat IPC: 1.12887 cumulative IPC: 1.12727 (Simulation time: 0 hr 20 min 0 sec) 
Heartbeat CPU  0 instructions:  416000000 cycles:  337324889 heartbeat IPC: 1.12646 cumulative IPC: 1.12727 (Simulation time: 0 hr 20 min 3 sec) 
Heartbeat CPU  0 instructions:  417000001 cycles:  338211656 heartbeat IPC: 1.12769 cumulative IPC: 1.12727 (Simulation time: 0 hr 20 min 6 sec) 
Heartbeat CPU  0 instructions:  418000001 cycles:  339092731 heartbeat IPC: 1.13498 cumulative IPC: 1.12730 (Simulation time: 0 hr 20 min 9 sec) 
Heartbeat CPU  0 instructions:  419000000 cycles:  339977582 heartbeat IPC: 1.13013 cumulative IPC: 1.12730 (Simulation time: 0 hr 20 min 12 sec) 
Heartbeat CPU  0 instructions:  420000000 cycles:  340860533 heartbeat IPC: 1.13257 cumulative IPC: 1.12732 (Simulation time: 0 hr 20 min 15 sec) 
Heartbeat CPU  0 instructions:  421000002 cycles:  341747719 heartbeat IPC: 1.12716 cumulative IPC: 1.12732 (Simulation time: 0 hr 20 min 18 sec) 
Heartbeat CPU  0 instructions:  422000003 cycles:  342643956 heartbeat IPC: 1.11578 cumulative IPC: 1.12728 (Simulation time: 0 hr 20 min 21 sec) 
Heartbeat CPU  0 instructions:  423000002 cycles:  343542994 heartbeat IPC: 1.11230 cumulative IPC: 1.12724 (Simulation time: 0 hr 20 min 24 sec) 
Heartbeat CPU  0 instructions:  424000000 cycles:  344433838 heartbeat IPC: 1.12253 cumulative IPC: 1.12722 (Simulation time: 0 hr 20 min 27 sec) 
Heartbeat CPU  0 instructions:  425000002 cycles:  345323263 heartbeat IPC: 1.12432 cumulative IPC: 1.12721 (Simulation time: 0 hr 20 min 30 sec) 
Heartbeat CPU  0 instructions:  426000002 cycles:  346206962 heartbeat IPC: 1.13161 cumulative IPC: 1.12723 (Simulation time: 0 hr 20 min 33 sec) 
Heartbeat CPU  0 instructions:  427000002 cycles:  347088236 heartbeat IPC: 1.13472 cumulative IPC: 1.12725 (Simulation time: 0 hr 20 min 36 sec) 
Heartbeat CPU  0 instructions:  428000000 cycles:  347971278 heartbeat IPC: 1.13245 cumulative IPC: 1.12726 (Simulation time: 0 hr 20 min 39 sec) 
Heartbeat CPU  0 instructions:  429000000 cycles:  348853128 heartbeat IPC: 1.13398 cumulative IPC: 1.12729 (Simulation time: 0 hr 20 min 42 sec) 
Heartbeat CPU  0 instructions:  430000000 cycles:  349739622 heartbeat IPC: 1.12804 cumulative IPC: 1.12729 (Simulation time: 0 hr 20 min 45 sec) 
Heartbeat CPU  0 instructions:  431000003 cycles:  350624266 heartbeat IPC: 1.13040 cumulative IPC: 1.12730 (Simulation time: 0 hr 20 min 48 sec) 
Heartbeat CPU  0 instructions:  432000000 cycles:  351513631 heartbeat IPC: 1.12439 cumulative IPC: 1.12729 (Simulation time: 0 hr 20 min 51 sec) 
Heartbeat CPU  0 instructions:  433000002 cycles:  352396908 heartbeat IPC: 1.13215 cumulative IPC: 1.12730 (Simulation time: 0 hr 20 min 54 sec) 
Heartbeat CPU  0 instructions:  434000003 cycles:  353283510 heartbeat IPC: 1.12790 cumulative IPC: 1.12730 (Simulation time: 0 hr 20 min 57 sec) 
Heartbeat CPU  0 instructions:  435000000 cycles:  354169289 heartbeat IPC: 1.12895 cumulative IPC: 1.12731 (Simulation time: 0 hr 21 min 0 sec) 
Heartbeat CPU  0 instructions:  436000000 cycles:  355060808 heartbeat IPC: 1.12168 cumulative IPC: 1.12729 (Simulation time: 0 hr 21 min 3 sec) 
Heartbeat CPU  0 instructions:  437000002 cycles:  355948125 heartbeat IPC: 1.12700 cumulative IPC: 1.12729 (Simulation time: 0 hr 21 min 6 sec) 
Heartbeat CPU  0 instructions:  438000001 cycles:  356832141 heartbeat IPC: 1.13120 cumulative IPC: 1.12730 (Simulation time: 0 hr 21 min 9 sec) 
Heartbeat CPU  0 instructions:  439000000 cycles:  357716867 heartbeat IPC: 1.13029 cumulative IPC: 1.12731 (Simulation time: 0 hr 21 min 12 sec) 
Heartbeat CPU  0 instructions:  440000000 cycles:  358600484 heartbeat IPC: 1.13171 cumulative IPC: 1.12732 (Simulation time: 0 hr 21 min 16 sec) 
Heartbeat CPU  0 instructions:  441000003 cycles:  359488119 heartbeat IPC: 1.12659 cumulative IPC: 1.12732 (Simulation time: 0 hr 21 min 19 sec) 
Heartbeat CPU  0 instructions:  442000003 cycles:  360372875 heartbeat IPC: 1.13026 cumulative IPC: 1.12733 (Simulation time: 0 hr 21 min 22 sec) 
Heartbeat CPU  0 instructions:  443000002 cycles:  361258357 heartbeat IPC: 1.12933 cumulative IPC: 1.12734 (Simulation time: 0 hr 21 min 25 sec) 
Heartbeat CPU  0 instructions:  444000000 cycles:  362147459 heartbeat IPC: 1.12473 cumulative IPC: 1.12733 (Simulation time: 0 hr 21 min 28 sec) 
Heartbeat CPU  0 instructions:  445000002 cycles:  363028943 heartbeat IPC: 1.13445 cumulative IPC: 1.12735 (Simulation time: 0 hr 21 min 31 sec) 
Heartbeat CPU  0 instructions:  446000001 cycles:  363918191 heartbeat IPC: 1.12454 cumulative IPC: 1.12734 (Simulation time: 0 hr 21 min 34 sec) 
Heartbeat CPU  0 instructions:  447000000 cycles:  364806289 heartbeat IPC: 1.12600 cumulative IPC: 1.12734 (Simulation time: 0 hr 21 min 37 sec) 
Heartbeat CPU  0 instructions:  448000000 cycles:  365694920 heartbeat IPC: 1.12533 cumulative IPC: 1.12733 (Simulation time: 0 hr 21 min 40 sec) 
Heartbeat CPU  0 instructions:  449000000 cycles:  366576558 heartbeat IPC: 1.13425 cumulative IPC: 1.12735 (Simulation time: 0 hr 21 min 43 sec) 
Heartbeat CPU  0 instructions:  450000003 cycles:  367460361 heartbeat IPC: 1.13148 cumulative IPC: 1.12736 (Simulation time: 0 hr 21 min 46 sec) 
Heartbeat CPU  0 instructions:  451000002 cycles:  368345884 heartbeat IPC: 1.12927 cumulative IPC: 1.12737 (Simulation time: 0 hr 21 min 49 sec) 
Heartbeat CPU  0 instructions:  452000000 cycles:  369231721 heartbeat IPC: 1.12887 cumulative IPC: 1.12737 (Simulation time: 0 hr 21 min 52 sec) 
Heartbeat CPU  0 instructions:  453000000 cycles:  370118043 heartbeat IPC: 1.12826 cumulative IPC: 1.12738 (Simulation time: 0 hr 21 min 55 sec) 
Heartbeat CPU  0 instructions:  454000001 cycles:  371010477 heartbeat IPC: 1.12053 cumulative IPC: 1.12736 (Simulation time: 0 hr 21 min 58 sec) 
Heartbeat CPU  0 instructions:  455000002 cycles:  371901158 heartbeat IPC: 1.12274 cumulative IPC: 1.12734 (Simulation time: 0 hr 22 min 1 sec) 
Heartbeat CPU  0 instructions:  456000000 cycles:  372787065 heartbeat IPC: 1.12878 cumulative IPC: 1.12735 (Simulation time: 0 hr 22 min 4 sec) 
Heartbeat CPU  0 instructions:  457000003 cycles:  373674216 heartbeat IPC: 1.12721 cumulative IPC: 1.12735 (Simulation time: 0 hr 22 min 7 sec) 
Heartbeat CPU  0 instructions:  458000000 cycles:  374560041 heartbeat IPC: 1.12889 cumulative IPC: 1.12735 (Simulation time: 0 hr 22 min 10 sec) 
Heartbeat CPU  0 instructions:  459000002 cycles:  375447865 heartbeat IPC: 1.12635 cumulative IPC: 1.12735 (Simulation time: 0 hr 22 min 13 sec) 
Heartbeat CPU  0 instructions:  460000000 cycles:  376334081 heartbeat IPC: 1.12839 cumulative IPC: 1.12735 (Simulation time: 0 hr 22 min 16 sec) 
Heartbeat CPU  0 instructions:  461000001 cycles:  377222586 heartbeat IPC: 1.12549 cumulative IPC: 1.12735 (Simulation time: 0 hr 22 min 19 sec) 
Heartbeat CPU  0 instructions:  462000000 cycles:  378108774 heartbeat IPC: 1.12843 cumulative IPC: 1.12735 (Simulation time: 0 hr 22 min 22 sec) 
Heartbeat CPU  0 instructions:  463000000 cycles:  378997522 heartbeat IPC: 1.12518 cumulative IPC: 1.12734 (Simulation time: 0 hr 22 min 25 sec) 
Heartbeat CPU  0 instructions:  464000000 cycles:  379888830 heartbeat IPC: 1.12195 cumulative IPC: 1.12733 (Simulation time: 0 hr 22 min 28 sec) 
Heartbeat CPU  0 instructions:  465000000 cycles:  380775118 heartbeat IPC: 1.12830 cumulative IPC: 1.12733 (Simulation time: 0 hr 22 min 31 sec) 
Heartbeat CPU  0 instructions:  466000000 cycles:  381666464 heartbeat IPC: 1.12190 cumulative IPC: 1.12732 (Simulation time: 0 hr 22 min 34 sec) 
Heartbeat CPU  0 instructions:  467000001 cycles:  382552983 heartbeat IPC: 1.12801 cumulative IPC: 1.12732 (Simulation time: 0 hr 22 min 37 sec) 
Heartbeat CPU  0 instructions:  468000000 cycles:  383444666 heartbeat IPC: 1.12147 cumulative IPC: 1.12730 (Simulation time: 0 hr 22 min 40 sec) 
Heartbeat CPU  0 instructions:  469000003 cycles:  384332793 heartbeat IPC: 1.12597 cumulative IPC: 1.12730 (Simulation time: 0 hr 22 min 43 sec) 
Heartbeat CPU  0 instructions:  470000002 cycles:  385226120 heartbeat IPC: 1.11941 cumulative IPC: 1.12728 (Simulation time: 0 hr 22 min 46 sec) 
Heartbeat CPU  0 instructions:  471000002 cycles:  386114884 heartbeat IPC: 1.12516 cumulative IPC: 1.12727 (Simulation time: 0 hr 22 min 49 sec) 
Heartbeat CPU  0 instructions:  472000000 cycles:  387005747 heartbeat IPC: 1.12250 cumulative IPC: 1.12726 (Simulation time: 0 hr 22 min 52 sec) 
Heartbeat CPU  0 instructions:  473000001 cycles:  387894991 heartbeat IPC: 1.12455 cumulative IPC: 1.12725 (Simulation time: 0 hr 22 min 55 sec) 
Heartbeat CPU  0 instructions:  474000000 cycles:  388785920 heartbeat IPC: 1.12242 cumulative IPC: 1.12724 (Simulation time: 0 hr 22 min 58 sec) 
Heartbeat CPU  0 instructions:  475000000 cycles:  389670197 heartbeat IPC: 1.13087 cumulative IPC: 1.12725 (Simulation time: 0 hr 23 min 1 sec) 
Heartbeat CPU  0 instructions:  476000000 cycles:  390559017 heartbeat IPC: 1.12509 cumulative IPC: 1.12724 (Simulation time: 0 hr 23 min 4 sec) 
Heartbeat CPU  0 instructions:  477000000 cycles:  391444780 heartbeat IPC: 1.12897 cumulative IPC: 1.12725 (Simulation time: 0 hr 23 min 7 sec) 
Heartbeat CPU  0 instructions:  478000002 cycles:  392329446 heartbeat IPC: 1.13037 cumulative IPC: 1.12725 (Simulation time: 0 hr 23 min 10 sec) 
Heartbeat CPU  0 instructions:  479000002 cycles:  393219400 heartbeat IPC: 1.12365 cumulative IPC: 1.12725 (Simulation time: 0 hr 23 min 13 sec) 
Heartbeat CPU  0 instructions:  480000000 cycles:  394107385 heartbeat IPC: 1.12614 cumulative IPC: 1.12724 (Simulation time: 0 hr 23 min 16 sec) 
Heartbeat CPU  0 instructions:  481000002 cycles:  394993374 heartbeat IPC: 1.12868 cumulative IPC: 1.12725 (Simulation time: 0 hr 23 min 19 sec) 
Heartbeat CPU  0 instructions:  482000000 cycles:  395877549 heartbeat IPC: 1.13100 cumulative IPC: 1.12726 (Simulation time: 0 hr 23 min 22 sec) 
Heartbeat CPU  0 instructions:  483000000 cycles:  396765396 heartbeat IPC: 1.12632 cumulative IPC: 1.12725 (Simulation time: 0 hr 23 min 25 sec) 
Heartbeat CPU  0 instructions:  484000000 cycles:  397655924 heartbeat IPC: 1.12293 cumulative IPC: 1.12724 (Simulation time: 0 hr 23 min 28 sec) 
Heartbeat CPU  0 instructions:  485000000 cycles:  398549198 heartbeat IPC: 1.11948 cumulative IPC: 1.12722 (Simulation time: 0 hr 23 min 31 sec) 
Heartbeat CPU  0 instructions:  486000002 cycles:  399437833 heartbeat IPC: 1.12532 cumulative IPC: 1.12722 (Simulation time: 0 hr 23 min 35 sec) 
Heartbeat CPU  0 instructions:  487000003 cycles:  400321969 heartbeat IPC: 1.13105 cumulative IPC: 1.12723 (Simulation time: 0 hr 23 min 38 sec) 
Heartbeat CPU  0 instructions:  488000000 cycles:  401207743 heartbeat IPC: 1.12895 cumulative IPC: 1.12723 (Simulation time: 0 hr 23 min 41 sec) 
Heartbeat CPU  0 instructions:  489000000 cycles:  402094383 heartbeat IPC: 1.12785 cumulative IPC: 1.12723 (Simulation time: 0 hr 23 min 44 sec) 
Heartbeat CPU  0 instructions:  490000003 cycles:  402978107 heartbeat IPC: 1.13158 cumulative IPC: 1.12724 (Simulation time: 0 hr 23 min 47 sec) 
Heartbeat CPU  0 instructions:  491000001 cycles:  403864940 heartbeat IPC: 1.12761 cumulative IPC: 1.12724 (Simulation time: 0 hr 23 min 50 sec) 
Heartbeat CPU  0 instructions:  492000000 cycles:  404751729 heartbeat IPC: 1.12766 cumulative IPC: 1.12725 (Simulation time: 0 hr 23 min 53 sec) 
Heartbeat CPU  0 instructions:  493000002 cycles:  405640179 heartbeat IPC: 1.12556 cumulative IPC: 1.12724 (Simulation time: 0 hr 23 min 56 sec) 
Heartbeat CPU  0 instructions:  494000003 cycles:  406521337 heartbeat IPC: 1.13487 cumulative IPC: 1.12726 (Simulation time: 0 hr 23 min 59 sec) 
Heartbeat CPU  0 instructions:  495000003 cycles:  407408795 heartbeat IPC: 1.12681 cumulative IPC: 1.12726 (Simulation time: 0 hr 24 min 2 sec) 
Heartbeat CPU  0 instructions:  496000000 cycles:  408296813 heartbeat IPC: 1.12610 cumulative IPC: 1.12726 (Simulation time: 0 hr 24 min 5 sec) 
Heartbeat CPU  0 instructions:  497000000 cycles:  409184340 heartbeat IPC: 1.12673 cumulative IPC: 1.12726 (Simulation time: 0 hr 24 min 8 sec) 
Heartbeat CPU  0 instructions:  498000000 cycles:  410066909 heartbeat IPC: 1.13306 cumulative IPC: 1.12727 (Simulation time: 0 hr 24 min 11 sec) 
Heartbeat CPU  0 instructions:  499000001 cycles:  410953830 heartbeat IPC: 1.12750 cumulative IPC: 1.12727 (Simulation time: 0 hr 24 min 14 sec) 
Heartbeat CPU  0 instructions:  500000000 cycles:  411841783 heartbeat IPC: 1.12618 cumulative IPC: 1.12727 (Simulation time: 0 hr 24 min 17 sec) 
Heartbeat CPU  0 instructions:  501000002 cycles:  412728374 heartbeat IPC: 1.12792 cumulative IPC: 1.12727 (Simulation time: 0 hr 24 min 20 sec) 
Heartbeat CPU  0 instructions:  502000001 cycles:  413616379 heartbeat IPC: 1.12612 cumulative IPC: 1.12727 (Simulation time: 0 hr 24 min 23 sec) 
Heartbeat CPU  0 instructions:  503000003 cycles:  414504752 heartbeat IPC: 1.12566 cumulative IPC: 1.12726 (Simulation time: 0 hr 24 min 26 sec) 
Heartbeat CPU  0 instructions:  504000000 cycles:  415392399 heartbeat IPC: 1.12657 cumulative IPC: 1.12726 (Simulation time: 0 hr 24 min 29 sec) 
Heartbeat CPU  0 instructions:  505000000 cycles:  416274984 heartbeat IPC: 1.13304 cumulative IPC: 1.12728 (Simulation time: 0 hr 24 min 32 sec) 
Heartbeat CPU  0 instructions:  506000003 cycles:  417163702 heartbeat IPC: 1.12522 cumulative IPC: 1.12727 (Simulation time: 0 hr 24 min 35 sec) 
Heartbeat CPU  0 instructions:  507000001 cycles:  418050349 heartbeat IPC: 1.12784 cumulative IPC: 1.12727 (Simulation time: 0 hr 24 min 38 sec) 
Heartbeat CPU  0 instructions:  508000000 cycles:  418937073 heartbeat IPC: 1.12775 cumulative IPC: 1.12727 (Simulation time: 0 hr 24 min 41 sec) 
Heartbeat CPU  0 instructions:  509000001 cycles:  419826346 heartbeat IPC: 1.12452 cumulative IPC: 1.12727 (Simulation time: 0 hr 24 min 44 sec) 
Heartbeat CPU  0 instructions:  510000002 cycles:  420710653 heartbeat IPC: 1.13083 cumulative IPC: 1.12727 (Simulation time: 0 hr 24 min 47 sec) 
Heartbeat CPU  0 instructions:  511000001 cycles:  421597702 heartbeat IPC: 1.12733 cumulative IPC: 1.12727 (Simulation time: 0 hr 24 min 50 sec) 
Heartbeat CPU  0 instructions:  512000000 cycles:  422481193 heartbeat IPC: 1.13187 cumulative IPC: 1.12729 (Simulation time: 0 hr 24 min 53 sec) 
Heartbeat CPU  0 instructions:  513000002 cycles:  423369290 heartbeat IPC: 1.12601 cumulative IPC: 1.12728 (Simulation time: 0 hr 24 min 56 sec) 
Heartbeat CPU  0 instructions:  514000003 cycles:  424258163 heartbeat IPC: 1.12502 cumulative IPC: 1.12728 (Simulation time: 0 hr 24 min 59 sec) 
Heartbeat CPU  0 instructions:  515000002 cycles:  425149522 heartbeat IPC: 1.12188 cumulative IPC: 1.12726 (Simulation time: 0 hr 25 min 2 sec) 
Heartbeat CPU  0 instructions:  516000000 cycles:  426033644 heartbeat IPC: 1.13106 cumulative IPC: 1.12727 (Simulation time: 0 hr 25 min 5 sec) 
Heartbeat CPU  0 instructions:  517000000 cycles:  426918013 heartbeat IPC: 1.13075 cumulative IPC: 1.12728 (Simulation time: 0 hr 25 min 8 sec) 
Heartbeat CPU  0 instructions:  518000001 cycles:  427802477 heartbeat IPC: 1.13063 cumulative IPC: 1.12729 (Simulation time: 0 hr 25 min 11 sec) 
Heartbeat CPU  0 instructions:  519000002 cycles:  428689409 heartbeat IPC: 1.12748 cumulative IPC: 1.12729 (Simulation time: 0 hr 25 min 14 sec) 
Heartbeat CPU  0 instructions:  520000000 cycles:  429571491 heartbeat IPC: 1.13368 cumulative IPC: 1.12731 (Simulation time: 0 hr 25 min 17 sec) 
Heartbeat CPU  0 instructions:  521000003 cycles:  430452409 heartbeat IPC: 1.13518 cumulative IPC: 1.12732 (Simulation time: 0 hr 25 min 20 sec) 
Heartbeat CPU  0 instructions:  522000003 cycles:  431335477 heartbeat IPC: 1.13242 cumulative IPC: 1.12734 (Simulation time: 0 hr 25 min 23 sec) 
Heartbeat CPU  0 instructions:  523000000 cycles:  432225018 heartbeat IPC: 1.12417 cumulative IPC: 1.12733 (Simulation time: 0 hr 25 min 26 sec) 
Heartbeat CPU  0 instructions:  524000000 cycles:  433108086 heartbeat IPC: 1.13242 cumulative IPC: 1.12734 (Simulation time: 0 hr 25 min 29 sec) 
Heartbeat CPU  0 instructions:  525000002 cycles:  433997986 heartbeat IPC: 1.12372 cumulative IPC: 1.12733 (Simulation time: 0 hr 25 min 32 sec) 
Heartbeat CPU  0 instructions:  526000001 cycles:  434887417 heartbeat IPC: 1.12431 cumulative IPC: 1.12732 (Simulation time: 0 hr 25 min 35 sec) 
Heartbeat CPU  0 instructions:  527000001 cycles:  435778652 heartbeat IPC: 1.12204 cumulative IPC: 1.12731 (Simulation time: 0 hr 25 min 38 sec) 
[...]
AAAAAAAAAAAA222IIIIIIIIAAAAAAAAAAA222IIIIIIIIIIIIAAAAAA222IIIAAA
AAAAAAAAAAAA222IIIIIIIIIAAAAAAAAAA222IIIIIIIIIIIIAAAAAA222IIIAAA
AAAAAAAAAAAAA222IIIIIIIIAAAAAAAAAA222IIIIIIIIIIIIAAAAAA222IIIAAA
AAAAAAAAAAAAA222IIIIIIIIAAAAAAAAAA222IIIIIIIIIIIIAAAAAAA222IIAAA
AAAAAAAAAAAAA222IIIIIIIIAAAAAAAAAAA222IIIIIIIIIIIAAAAAAA222IIAAA
AIAAAAAAAAAAA222IIIIIIIIAAAAAAAAAAA222IIIIIIIIIIIAAAAAAA222IIAAA
AIIAAAAAAAAAA222IIIIIIIIAAAAAAAAAAA222IIIIIIIIIIIAAAAAAA222IIAAA
AIIIAAAAAAAAA222IIIIIIIIAAAAAAAAAAA222IIIIIIIIIIIAAAAAAA222IIAAA
AIIIAAAAAAAAA222IIIIIIIIAAAAAAAAAAA222IIIIIIIIIIIAAAAAAAA222IAAA
AIIIAAAAAAAAAA222IIIIIIIAAAAAAAAAAA222IIIIIIIIIIIAAAAAAAA222IAAA
AIIIAAAAAAAAAA222IIIIIIIIAAAAAAAAAA222IIIIIIIIIIIAAAAAAAA222IAAA
AIIIAAAAAAAAAA222IIIIIIIIAAAAAAAAAAA222IIIIIIIIIIAAAAAAAA222IAAA
AIIIAAAAAAAAAA222IIIIIIIIIAAAAAAAAAA222IIIIIIIIIIAAAAAAAA222IAAA
AIIIIAAAAAAAAA222IIIIIIIIIAAAAAAAAAA222IIIIIIIIIIAAAAAAAA222IAAA
AIIIIAAAAAAAAAA222IIIIIIIIAAAAAAAAAA222IIIIIIIIIIAAAAAAAA222IAAA
AIIIIAAAAAAAAAA222IIIIIIIIAAAAAAAAAA222IIIIIIIIIIAAAAAAAAA222AAA
AIIIIAAAAAAAAAA222IIIIIIIIAAAAAAAAAAA222IIIIIIIIIAAAAAAAAA222AAA
AIIIIAAAAAAAAAA222IIIIIIIIIAAAAAAAAAA222IIIIIIIIIAAAAAAAAA222AAA
AIIIIAAAAAAAAAAA222IIIIIIIIAAAAAAAAAA222IIIIIIIIIAAAAAAAAA222AAA
AIIIIAAAAAAAAAAA222IIIIIIIIAAAAAAAAAA222IIIIIIIIIAAAAAAAAAA22AAA
AIIIIAAAAAAAAAAA222IIIIIIIIAAAAAAAAAAA222IIIIIIIIAAAAAAAAAA22AAA
AIIIIAAAAAAAAAAA222IIIIIIIIIAAAAAAAAAA222IIIIIIIIAAAAAAAAAA22AAA
AIIIIAAAAAAAAAAAA222IIIIIIIIAAAAAAAAAA222IIIIIIIIAAAAAAAAAA22AAA
AIIIIAAAAAAAAAAAA222IIIIIIIIAAAAAAAAAA222IIIIIIIIAAAAAAAAAAA2AAA
AIIIIAAAAAAAAAAAA222IIIIIIIIAAAAAAAAAA222IIIIIIIIIAAAAAAAAAA2AAA
AIIIIAAAAAAAAAAAA222IIIIIIIIAAAAAAAAAAA222IIIIIIIIAAAAAAAAAA2AAA
AIIIIAAAAAAAAAAAAA222IIIIIIIAAAAAAAAAAA222IIIIIIIIAAAAAAAAAA2AAA
AIIIIAAAAAAAAAAAAA222IIIIIIIAAAAAAAAAAA222IIIIIIIIAAAAAAAAAAAAAA
AIIIIAAAAAAAAAAAAA222IIIIIIIIAAAAAAAAAA222IIIIIIIIAAAAAAAAAAAAAA
AIIIIAAAAAAAAAAAAA222IIIIIIIIAAAAAAAAAA222IIIIIIIIIAAAAAAAAAAAAA
AIIIIAAAAAAAAAAAAA222IIIIIIIIAAAAAAAAAAA222IIIIIIIIAAAAAAAAAAAAA
AIIIIAAAAAAAAAAAAAA222IIIIIIIAAAAAAAAAAA222IIIIIIIIAAAAAAAAAAAAA
AIIIIAAAAAAAAAAAAAA222IIIIIIIIAAAAAAAAAA222IIIIIIIIAAAAAAAAAAAAA
AIIIIAAAAAAAAAAAAAA222IIIIIIIIAAAAAAAAAA222IIIIIIIIIAAAAAAAAAAAA
AIIIIAAAAAAAAAAAAAA222IIIIIIIIAAAAAAAAAAA222IIIIIIIIAAAAAAAAAAAA
AIIIIAAAAAAAAAAAAAAA222IIIIIIIAAAAAAAAAAA222IIIIIIIIAAAAAAAAAAAA
AIIIIAAAAAAAAAAAAAAA222IIIIIIIIAAAAAAAAAA222IIIIIIIIAAAAAAAAAAAA
AIIIIAAAAAAAAAAAAAAA222IIIIIIIIAAAAAAAAAA222IIIIIIIIIAAAAAAAAAAA
AIIIIAAAAAAAAAAAAAAA222IIIIIIIIAAAAAAAAAAA222IIIIIIIIAAAAAAAAAAA
AIIIIAAAAAAAAAAAAAAAA222IIIIIIIAAAAAAAAAAA222IIIIIIIIAAAAAAAAAAA
AIIIIAAAAAAAAAAAAAAAA222IIIIIIIIAAAAAAAAAA222IIIIIIIIAAAAAAAAAAA
AIIIIAAAAAAAAAAAAAAAA222IIIIIIIIAAAAAAAAAA222IIIIIIIIIAAAAAAAAAA
AIIIIAAAAAAAAAAAAAAAA222IIIIIIIIAAAAAAAAAAA222IIIIIIIIAAAAAAAAAA
AIIIIAAAAAAAAAAAAAAAAA222IIIIIIIAAAAAAAAAAA222IIIIIIIIAAAAAAAAAA
AIIIIAAAAAAAAAAAAAAAAA222IIIIIIIIAAAAAAAAAA222IIIIIIIIAAAAAAAAAA
AIIIIAAAAAAAAAAAAAAAAA222IIIIIIIIAAAAAAAAAA222IIIIIIIIIAAAAAAAAA
AIIIIAAAAAAAAAAAAAAAAA222IIIIIIIIAAAAAAAAAAA222IIIIIIIIAAAAAAAAA
AIIIIAAAAAAAAAAAAAAAAA222IIIIIIIIAAAAAAAAAAA222IIIIIIIIAAAAAAIAA
AIIIIAAAAAAAAAAAAAAAAAA222IIIIIIIAAAAAAAAAAA222IIIIIIIIAAAAAAIAA
A222IAAAAAAAAAAAAAAAAAA222IIIIIIIAAAAAAAAAAA222IIIIIIIIAAAAAAIAA
A222IAAAAAAAAAAAAAAAAAA222IIIIIIIIAAAAAAAAAA222IIIIIIIIAAAAAAIAA
A222IAAAAAAAAAAAAAAAAAA222IIIIIIIIAAAAAAAAAA222IIIIIIIIIAAAAAIAA
A222IAAAAAAAAAAAAAAAAAA222IIIIIIIIAAAAAAAAAAA222IIIIIIIIAAAAAIAA
AA222AAAAAAAAAAAAAAAAAA222IIIIIIIIAAAAAAAAAAA222IIIIIIIIAAAAAIAA
AA222AAAAAAAAAAAAAAAAAA222IIIIIIIIAAAAAAAAAAA222IIIIIIIIAAAAAIIA
AA222AAAAAAAAAAAAAAAAAAA222IIIIIIIAAAAAAAAAAA222IIIIIIIIAAAAAIIA
AA222AAAAAAAAAAAAAAAAAAA222IIIIIIIIAAAAAAAAAA222IIIIIIIIAAAAAIIA
AA222AAAAAAAAAAAAAAAAAAA222IIIIIIIIAAAAAAAAAA222IIIIIIIIIAAAAIIA
AA222AAAAAAAAAAAAAAAAAAA222IIIIIIIIAAAAAAAAAAA222IIIIIIIIAAAAIIA
AAA22AAAAAAAAAAAAAAAAAAA222IIIIIIIIAAAAAAAAAAA222IIIIIIIIAAAAIIA
AAA22AAAAAAAAAAAAAAAAAAAA222IIIIIIIAAAAAAAAAAA222IIIIIIIIAAAAIIA
AAA22AAAAAAAAAAAAAAAAAAAA222IIIIIIIIAAAAAAAAAA222IIIIIIIIAAAAIIA
AAA22AAAAAAAAAAAAAAAAAAAA222IIIIIIIIAAAAAAAAAA222IIIIIIIIIAAAIIA
AAA22AAAAAAAAAAAAAAAAAAAA222IIIIIIIIAAAAAAAAAA222IIIIIIIIIIAAIIA
AAA22AAAAAAAAAAIAAAAAAAAA222IIIIIIIIAAAAAAAAAA222IIIIIIIIIIAAIIA
AAA22AAAAAAAAAAIAAAAAAAAA222IIIIIIIIAAAAAAAAAA2222IIIIIIIIIAAIIA
AAA22AAAAAAAAAAIAAAAAAAAA2222IIIIIIIAAAAAAAAAA2222IIIIIIIIIAAIIA
AAA22AAAAAAAAAAIAAAAAAAAA2222IIIIIIIAAAAAAAAAAA2222IIIIIIIIAAIIA
AAA22AAAAAAAAAAIAAAAAAAAA2222IIIIIIIIAAAAAAAAAA2222IIIIIIIIAAIIA
AAA22AAAAAAAAAAIAAAAAAAAA2222IIIIIIIIAAAAAAAAAA2222IIIIIIIIAAIII
AAAA2AAAAAAAAAAIAAAAAAAAA2222IIIIIIIIAAAAAAAAAA2222IIIIIIIIAAIII
AAAA2AAAAAAAAAAIIAAAAAAAA2222IIIIIIIIAAAAAAAAAA2222IIIIIIIIAAIII
AAAA2AAAAAAAAAAIIAAAAAAAAA2222IIIIIIIAAAAAAAAAA2222IIIIIIIIAAIII
AAAA2AAAAAAAAAAIIAAAAAAAAA2222IIIIIIIIAAAAAAAAA2222IIIIIIIIAAIII
AAAA2AAAAAAAAAAIIAAAAAAAAA2222IIIIIIIIAAAAAAAAA2222IIIIIIIIIAIII
AAAA2AAAAAAAAAAIIAAAAAAAAA2222IIIIIIIIAAAAAAAAAA2222IIIIIIIIAIII
AAAAAAAAAAAAAAAIIAAAAAAAAA2222IIIIIIIIAAAAAAAAAA2222IIIIIIIIAIII
AAAAAAAAAAAAAAAIIAAAAAAAAA2222IIIIIIIIIAAAAAAAAA2222IIIIIIIIAIII
AAAAAAAAAAAAAAAIIIAAAAAAAA2222IIIIIIIIIAAAAAAAAA2222IIIIIIIIAIII
AAAAAAAAAAAAAAAIIIAAAAAAAAA222IIIIIIIIIAAAAAAAAA2222IIIIIIIIAIII
AAAAAAAAAAAAAAAIIIAAAAAAAAA222IIIIIIIIIAAAAAAAAAA222IIIIIIIIAIII
AAAAAAAAAAAAAAAIIIAAAAAAAAAA222IIIIIIIIAAAAAAAAAA222IIIIIIIIAIII
AAAAAAAAAAAAAAAIIIAAAAAAAAAA222IIIIIIIIAAAAAAAAAA222IIIIIIIIIIII
AAAAAAAAAAAAAAAIIIAAAAAAAAAA222IIIIIIIIAAAAAAAAAAA222IIIIIIIIIII
AAAAAAAAAAAAAAAIIIAAAAAAAAAA222IIIIIIIIIAAAAAAAAAA222IIIIIIIIIII
AAAAAAAAAAAAAAAIIIIAAAAAAAAA222IIIIIIIIIAAAAAAAAAA222IIIIIIIIIII
AAAAAAAAAAAAAAAIIIIAAAAAAAAAA222IIIIIIIIAAAAAAAAAA222IIIIIIIIIII
AAAAAAAAAAAAAAAIIIIAAAAAAAAAA222IIIIIIIIAAAAAAAAAAA222IIIIIIIIII
AAAAAAAAAAAAAAAIIIIIAAAAAAAAA222IIIIIIIIAAAAAAAAAAA222IIIIIIIIII
AAAAAAAAAAAAAAAIIIIIAAAAAAAAAA222IIIIIIIAAAAAAAAAAA222IIIIIIIIII
AAAAAAAAAAAAAAAIIIIIAAAAAAAAAA222IIIIIIIIAAAAAAAAAA222IIIIIIIIII
AAAAAAAAAAAAAAAIIIIIAAAAAAAAAA222IIIIIIIIAAAAAAAAAAA222IIIIIIIII
AAAAAAAAAAAAAAAIIIIIIAAAAAAAAA222IIIIIIIIAAAAAAAAAAA222IIIIIIIII
AAAAAAAAAAAAAAAIIIIIIAAAAAAAAAA222IIIIIIIAAAAAAAAAAA222IIIIIIIII
AAAAAAAAAAAAAAAIIIIIIAAAAAAAAAA222IIIIIIIIAAAAAAAAAA222IIIIIIIII
AAAAAAAAAAAAAAAIIIIIIAAAAAAAAAA222IIIIIIIIAAAAAAAAAAA222IIIIIIII
AAAAAAAAAAAAAAAIIIIIIAAAAAAAAAAA222IIIIIIIAAAAAAAAAAA222IIIIIIII
AAAAAAAAAAAAAAAIIIIIIAAAAAAAAAAA222IIIIIIIIAAAAAAAAAA222IIIIIIII
AAAAAAAAAAAAAAAIIIIIIAAAAAAAAAAA222IIIIIIIIAAAAAAAAAAA222IIIIIII
AAAAAAAAAAAAAAAIIIIIIAIAAAAAAAAA222IIIIIIIIAAAAAAAAAAA222IIIIIII
AAAAAAAAAAAAAAAIIIIIIAIAAAAAAAAAA222IIIIIIIAAAAAAAAAAA222IIIIIII
AAAAAAAAAAAAAAAIIIIIIAIAAAAAAAAAA222IIIIIIIAAAAAAAAAAAA222IIIIII
AAAAAAAAAAAAAAAIIIIIIAIAAAAAAAAAA222IIIIIIIIAAAAAAAAAAA222IIIIII
AAAAAAAAAAAAAAAIIIIIIAIAAAAAAAAAA222IIIIIIIIIAAAAAAAAAA222IIIIII
AAAAAAAAAAAAAAAIIIIIIAIAAAAAAAAAAA222IIIIIIIIAAAAAAAAAA222IIIIII
AAAAAAAAAAAAAAAIIIIIIAIAAAAAAAAAAA222IIIIIIIIAAAAAAAAAAA222IIIII
AAAAAAAAAAAAAAA2IIIIIAIAAAAAAAAAAA222IIIIIIIIAAAAAAAAAAA222IIIII
AAAAAAAAAAAAAAA2IIIIIAIAAAAAAAAAAA222IIIIIIIIIAAAAAAAAAA222IIIII
AAAAAAAAAAAAAAA2IIIIIAIAIAAAAAAAAA222IIIIIIIIIAAAAAAAAAA222IIIII
AAAAAAAAAAAAAAA2IIIIIAIAIAAAAAAAAAA222IIIIIIIIAAAAAAAAAA222IIIII
AAAAAAAAAAAAAAA2IIIIIAIAIAAAAAAAAAA222IIIIIIIIAAAAAAAAAAA222IIII
AAAAAAAAAAAAAAA22IIIIAIAIAAAAAAAAAA222IIIIIIIIAAAAAAAAAAA222IIII
AAAAAAAAAAAAAAA22IIIIAIAIAAAAAAAAAAA222IIIIIIIAAAAAAAAAAA222IIII
AAAAAAAAAAAAAAA22IIIIAIAIAAAAAAAAAAA222IIIIIIIIAAAAAAAAAA222IIII
AAAAAAAAAAIAAAA22IIIIAIAIAAAAAAAAAAA222IIIIIIIIAAAAAAAAAA222IIII
AAAAAAAAAAIAAAA22IIIIAIAIAAAAAAAAAAA222IIIIIIIIAAAAAAAAAAA222III
AIAAAAAAAAIAAAA22IIIIAIAIAAAAAAAAAAA222IIIIIIIIAAAAAAAAAAA222III
AIAAAAAAAAIAAAA222IIIAIAIAAAAAAAAAAA222IIIIIIIIAAAAAAAAAAA222III
AIIAAAAAAAIAAAA222IIIAIAIAAAAAAAAAAA222IIIIIIIIAAAAAAAAAAA222III
AIIIAAAAAAIAAAA222IIIAIAIAAAAAAAAAAA222IIIIIIIIAAAAAAAAAAA222III
AIIIAAAAAAIAAAA222IIIAIAIAAAAAAAAAAAA222IIIIIIIAAAAAAAAAAA222III
AIIIAAAAAAIAAAA222IIIAIAIAAAAAAAAAAAA222IIIIIIIIAAAAAAAAAA222III
AIIIAAAAAAIAAAA222IIIAIAIAAAAAAAAAAAA222IIIIIIIIAAAAAAAAAAA222II
AIIIAAAAAAIAAAAA222IIAIAIAAAAAAAAAAAA222IIIIIIIIAAAAAAAAAAA222II
AIIIIAAAAAIAAAAA222IIAIAIAAAAAAAAAAAA222IIIIIIIIAAAAAAAAAAA222II
AIIIIAAAAAIAAAAA222IIAIAIAAAAAAAAAAAA222IIIIIIIIIAAAAAAAAAA222II
AIIIIAAAAAIAAAAA222IIAIAIAAAAAAAAAAAAA222IIIIIIIIAAAAAAAAAA222II
AIIIIAAAAAIAAAAA222IIAIAIAAAAAAAAAAAAA222IIIIIIIIAAAAAAAAAAA222I
AIIIIAAAAAIAAAAAA222IAIAIAAAAAAAAAAAAA222IIIIIIIIAAAAAAAAAAA222I
AIIIIIAAAAIAAAAAA222IAIAIAAAAAAAAAAAAA222IIIIIIIIAAAAAAAAAAA222I
AIIIIIAAAAIAAAAAA222IAIAIAAAIAAAAAAAAA222IIIIIIIIAAAAAAAAAAA222I
AIIIIIAAAAIAAAAAA222IAIAIAAAIAAAAAAAAAA222IIIIIIIAAAAAAAAAAA222I
AIIIIIAAAAIAAAAAA222IAIAIAAAIAAAAAAAAAA222IIIIIIIIAAAAAAAAAA222I
AIIIIIAAAAIAAAAAA222IAIAIAAAIAAAAAAAAAA222IIIIIIIIAAAAAAAAAAA222
AIIIIIAAAAIAAAAAAA222AIAIAAAIAAAAAAAAAA222IIIIIIIIAAAAAAAAAAA222
AIIIIIIAAAIAAAAAAA222AIAIAAAIAAAAAAAAAA222IIIIIIIIAAAAAAAAAAA222
AIIIIIIAAAIAAAAAAA222AIAIAAAIIAAAAAAAAA222IIIIIIIIAAAAAAAAAAA222
AIIIIIIAAAIAAAAAAA222AIAIAAAIIAAAAAAAAAA222IIIIIIIAAAAAAAAAAA222
AIIIIIIAAAIAAAAAAA222AIAIAAAIIAAAAAAAAAA222IIIIIIIIAAAAAAAAAA222
AIIIIIIAAAIAAAAAAA222AIAIAAAIIAAAAAAAAAA222IIIIIIIIAAAAAAAAAAA22
AIIIIIIAAAIAAAAAAAA22AIAIAAAIIAAAAAAAAAA222IIIIIIIIAAAAAAAAAAA22
AIIIIIIAAAIAAAAAAAA22AIAIAAAIIIAAAAAAAAA222IIIIIIIIAAAAAAAAAAA22
AIIIIIIAAAIAAAAAAAA22AIAIAAAIIIAAAAAAAAAA222IIIIIIIAAAAAAAAAAA22
AIIIIIIAAAIAAAAAAAA22AIAIAAAIIIAAAAAAAAAA222IIIIIIIIAAAAAAAAAA22
AIIIIIIAAAIAAAAAAAA22AIAIAAAIIIAAAAAAAAAA222IIIIIIIIAAAAAAAAAAA2
AIIIIIIAAAIAAAAAAAAA2A2AIAAAIIIAAAAAAAAAA222IIIIIIIIAAAAAAAAAAA2
AIIIIIIAIAIAAAAAAAAA2A2AIAAAIIIAAAAAAAAAA222IIIIIIIIAAAAAAAAAAA2
AIIIIIIAIAIAAAAAAAAA2A2AIAAAIIIIAAAAAAAAA222IIIIIIIIAAAAAAAAAAA2
AIIIIIIAIAIAAAAAAAAA2A2AIAAAIIIIAAAAAAAAAA222IIIIIIIAAAAAAAAAAA2
AIIIIIIAIAIAAAAAAAAA2A2AIAAAIIIIAAAAAAAAAA222IIIIIIIIAAAAAAAAAA2
AIIIIIIAIAIAAAAAAAAA2A2AIAAAIIIIAAAAAAAAAA222IIIIIIIIAAAAAAAAAAA
AIIIIIIAIAIAAAAAAAAAAA2AIAAAIIIIAAAAAAAAAA222IIIIIIIIAAAAAAAAAAA
AIIIIIIAIIIAAAAAAAAAAA2AIAAAIIIIAAAAAAAAAA222IIIIIIIIAAAAAAAAAAA
AIIIIIIAIIIAAAAAAAAAAA2AIAAAIIIIIAAAAAAAAA222IIIIIIIIAAAAAAAAAAA
AIIIIIIAIIIAAAAAAAAAAA2AIAAAIIIIIAAAAAAAAAA222IIIIIIIAAAAAAAAAAA
AIIIIIIAIIIAAAAAAAAAAA2AIAAAIIIIIAAAAAAAAAA222IIIIIIIIAAAAAAAAAA
AIIIIIIAIIIAAAAAAAAAAA2A2AAAIIIIIAAAAAAAAAA222IIIIIIIIAAAAAAAAAA
AIIIIIIAIIIAAAAAAAAAAA2A2AAAIIIIIIAAAAAAAAA222IIIIIIIIAAAAAAAAAA
AIIIIIIAIIIAAAAAAAAAAA2A2AAAIIIIIIAAAAAAAAA222IIIIIIIIIAAAAAAAAA
AIIIIIIAIIIAAAAAAAAAAA2A2AAAIIIIIIAAAAAAAAAA222IIIIIIIIAAAAAAAAA
AIIIIIIAIIIAAAAAAAAAAAAA2AAAIIIIIIAAAAAAAAAA222IIIIIIIIAAAAAAAAA
AIIIIIIAIIIIAAAAAAAAAAAA2AAAIIIIIIAAAAAAAAAA222IIIIIIIIAAAAAAAAA
AIIIIIIAIIIIAAAAAAAAAAAA2AAAIIIIIIIAAAAAAAAA222IIIIIIIIAAAAAAAAA
AIIIIIIAIIIIAAAAAAAAAAAA2AAAIIIIIIIAAAAAAAAAA222IIIIIIIAAAAAAAAA
AIIIIIIAIIIIAAAAAAAAAAAA2AAAIIIIIIIAAAAAAAAAA222IIIIIIIIAAAAAAAA
AIIIIIIAIIIIIAAAAAAAAAAA2AAAIIIIIIIAAAAAAAAAA222IIIIIIIIAAAAAAAA
AIIIIIIAIIIIIAAAAAAAAAAA2AAAIIIIIIIIAAAAAAAAA222IIIIIIIIAAAAAAAA
AIIIIIIAIIIIIAAAAAAAAAAA2AAAIIIIIIIIIAAAAAAAA222IIIIIIIIAAAAAAAA
AIIIIIIAIIIIIAAAAAAAAAAA2AAAIIIIIIIIIAAAAAAAA222IIIIIIIIIAAAAAAA
AIIIIIIAIIIIIIAAAAAAAAAA2AAAIIIIIIIIIAAAAAAAA222IIIIIIIIIAAAAAAA
AIIIIIIAIIIIIIAAAAAAAAAA2AAAIIIIIIIIIAAAAAAAAA2222IIIIIIIAAAAAAA
AIIIIIIAIIIIIIAAAAAAAAAA2AAAIIIIIIIIIAAAAAAAAA2222IIIIIIIIAAAAAA
AIIIIIIAIIIIIIAIAAAAAAAA2AAAIIIIIIIIIAAAAAAAAA2222IIIIIIIIAAAAAA
AIIIIIIAIIIIIIAIAAAAAAAAAAAA2IIIIIIIIAAAAAAAAA2222IIIIIIIIAAAAAA
AIIIIIIAIIIIIIIIAAAAAAAAAAAA2IIIIIIIIAAAAAAAAA2222IIIIIIIIAAAAAA
AIIIIIIAIIIIIIIIAAAAAAAAAAAA2IIIIIIIIIAAAAAAAA2222IIIIIIIIAAAAAA
AIIIIIIAIIIIIIIIAAAAAAAAAAAA2IIIIIIIIIAAAAAAAAA2222IIIIIIIAAAAAA
AIIIIIIAIIIIIIIIAAAAAAAAAAAA2IIIIIIIIIAAAAAAAAA2222IIIIIIIIAAAAA
AIIIIIIAIIIIIIIIAAAAAAAAAAAA22IIIIIIIIAAAAAAAAA2222IIIIIIIIAAAAA
AIIIIIIAIIIIIIIIAAAAAAAAAAAA22IIIIIIIIAAAAAAAAAA222IIIIIIIIAAAAA
AIIIIIIAIIIIIIIIAAAAAAAAAAAA22IIIIIIIIAAAAAAAAAAA222IIIIIIIAAAAA
AIIIIIIAIIIIIIIIAAAAAAAAAAAA22IIIIIIIIAAAAAAAAAAA222IIIIIIIIAAAA
AIIIIIIAIIIIIIIIAAAAAAAAAAAA222IIIIIIIAAAAAAAAAAA222IIIIIIIIAAAA
AIIIIIIAIIIIIIIIIAAAAAAAAAAA222IIIIIIIAAAAAAAAAAA222IIIIIIIIAAAA
AIIIIIIAIIIIIIIIIAAAAAAAAAAA222IIIIIIIAAAAAAAAAAAA222IIIIIIIAAAA
AIIIIIIAIIIIIIIIIAAAAAAAAAAA222IIIIIIIAAAAAAAAAAAA222IIIIIIIIAAA
AIIIIIIAIIIIIIIIIAAAAAAAAAAAA222IIIIIIAAAAAAAAAAAA222IIIIIIIIAAA
AIIIIIIAIIIIIIIIIAAAAAAAAAAAA222IIIIIIAAAAAAAAAAAA222IIIIIIIIIAA
AIIIIIIAIIIIIIIIIIAAAAAAAAAAA222IIIIIIAAAAAAAAAAAA222IIIIIIIIIAA
AIIIIIIAIIIIIIIIIIAAAAAAAAAAA222IIIIIIAAIAAAAAAAAA222IIIIIIIIIAA
AIIIIIIAIIIIIIIIIIAAAAAAAAAAA222IIIIIIAAIAAAAAAAAAA222IIIIIIIIAA
AIIIIIIAIIIIIIIIIIAAAAAAAAAAAA222IIIIIAAIAAAAAAAAAA222IIIIIIIIAA
AIIIIIIAIIIIIIIIIIAAAAAAAAAAAA222IIIIIAAIAAAAAAAAAA222IIIIIIIIIA
AIIIIIIAIIIIIIIIIIIAAAAAAAAAAA222IIIIIAAIAAAAAAAAAA222IIIIIIIIIA
AIIIIIIAIIIIIIIIIIIAAAAAAAAAAA222IIIIIAAIIAAAAAAAAA222IIIIIIIIIA
AIIIIIIAIIIIIIIIIIIAAAAAAAAAAA222IIIIIAAIIAAAAAAAAAA222IIIIIIIIA
AIIIIIIAIIIIIIIIIIIAAAAAAAAAAAA222IIIIAAIIAAAAAAAAAA222IIIIIIIIA
AIIIIIIAIIIIIIIIIIIIAAAAAAAAAAA222IIIIAAIIAAAAAAAAAA222IIIIIIIIA
AIIIIIIAIIIIIIIIIIIIAAAAAAAAAAA222IIIIAAIIIAAAAAAAAA222IIIIIIIIA
AIIIIIIAIIIIIIIIIIIIAAAAAAAAAAA222IIIIAAIIIAAAAAAAAAA222IIIIIIIA
AIIIIIIAIIIIIIIIIIIIAAAAAAAAAAA222IIIIAAIIIAAAAAAAAAA222IIIIIIII
AIIIIIIAIIIIIIIIIIIIAAAAAAAAAAAA222IIIAAIIIAAAAAAAAAA222IIIIIIII
AIIIIIIAIIIIIIIIIIIIIAAAAAAAAAAA222IIIAAIIIAAAAAAAAAA222IIIIIIII
AIIIIIIAIIIIIIIIIIIIIAAAAAAAAAAA222IIIAAIIIAAAAAAAAAAA222IIIIIII
AIIIIIIAIIIIIIIIIIIIIIAAAAAAAAAA222IIIAAIIIAAAAAAAAAAA222IIIIIII
AIIIIIIAIIIIIIIIIIIIIIAAAAAAAAAAA222IIAAIIIAAAAAAAAAAA222IIIIIII
AIIIIIIAIIIIIIIIIIIIIIAAAAAAAAAAA222IIAAIIIAAAAAAAAAAAA222IIIIII
AIIIIIIAIIIIIIIIIIIIIIAAAAAAAAAAAA222IAAIIIAAAAAAAAAAAA222IIIIII
AIIIIIIAIIIIIIIIIIIIIIIAAAAAAAAAAA222IAAIIIAAAAAAAAAAAA222IIIIII
AIIIIIIAIIIIIIIIIIIIIIIAAAAAAAAAAA222IAAIIIAAAAAAAAAAAAA222IIIII
AIIIIIIAIIIIIIIIIIIIIIIIAAAAAAAAAA222IAAIIIAAAAAAAAAAAAA222IIIII
AIIIIIIAIIIIIIIIIIIIIIIIAAAAAAAAAAA222AAIIIAAAAAAAAAAAAA222IIIII
AIIIIIIAIIIIIIIIIIIIIIIIAAAAAAAAAAA222AAIIIAAAIAAAAAAAAA222IIIII
AIIIIIIAIIIIIIIIIIIIIIIIAAAAAAAAAAA222AAIIIAAAIAAAAAAAAAA222IIII
AIIIIIIAIIIIIIIIIIIIIIIIAAAAAAAAAAAA22AAIIIAAAIAAAAAAAAAA222IIII
AIIIIIIAIIIIIIIIIIIIIIIIIAAAAAAAAAAA22AAIIIAAAIAAAAAAAAAA222IIII
AIIIIIIAIIIIIIIIIIIIIIIIIAAAAAAAAAAA22AAIIIAAAIIAAAAAAAAA222IIII
AIIIIIIAIIIIIIIIIIIIIIIIIAAAAAAAAAAA22AAIIIAAAIIAAAAAAAAAA222III
AIIIIIIAIIIIIIIIIIIIIIIIIIAAAAAAAAAA22AAIIIAAAIIAAAAAAAAAA222III
AIIIIIIAIIIIIIIIIIIIIIIIIIAAAAAAAAAAA2AAIIIAAAIIAAAAAAAAAA222III
AIIIIIIAIIIIIIIIIIIIIIIIIIAAAAAAAAAAA2AAIIIAAAIIAAAAAAAAAAA222II
AIIIIIIAIIIIIIIIIIIIIIIIIIIAAAAAAAAAA2AAIIIAAAIIAAAAAAAAAAA222II
AIIIIIIAIIIIIIIIIIIIIIIIIIIAAAAAAAAAAAAA2IIAAAIIAAAAAAAAAAA222II
AIIIIIIAIIIIIIIIIIIIIIIIIIIAAAAAAAAAAAAA2IIAAAIIAIAAAAAAAAA222II
AIIIIIIAIIIIIIIIIIIIIIIIIIIAAAAAAAAAAAAA2IIAAAIIAIAAAAAAAAAA222I
AIIIIIIAIIIIIIIIIIIIIIIIIIIIAAAAAAAAAAAA2IIAAAIIAIAAAAAAAAAA222I
AIIIIIIAIIIIIIIIIIIIIIIIIIIIAAAAAAAAAAAA22IAAAIIAIAAAAAAAAAA222I
AIIIIIIAIIIIIIIIIIIIIIIIIIIIAAAAAAAAAAAA22IAAAIIAIIAAAAAAAAA222I
AIIIIIIAIIIIIIIIIIIIIIIIIIIIAAAAAAAAAAAA22IAAAIIAIIAAAAAAAAAA222
AIIIIIIAIIIIIIIIIIIIIIIIIIIIAAAAAAAAAAAA222AAAIIAIIAAAAAAAAAA222
AIIIIIIAIIIIIIIIIIIIIIIIIIIIAAAAAAAAAAAA222AAAIIAIIIAAAAAAAAA222
AIIIIIIAIIIIIIIIIIIIIIIIIIIIAAAAAAAAAAAA222AAAIIAIIIAAAAAAAAAA22
AIIIIIIAIIIIIIIIIIIIIIIIIIIIAAAAAAAAAAAAA22AAAIIAIIIAAAAAAAAAA22
AIIIIIIAIIIIIIIIIIIIIIIIIIIIAAAAAAAAAAAAA22AAAIIAIIIIAAAAAAAAA22
AIIIIIIAIIIIIIIIIIIIIIIIIIIIAAAAAAAAAAAAA22AAAIIAIIIIAAAAAAAAAA2
AIIIIIIAIIIIIIIIIIIIIIIIIIIIAAAAAAAAAAAAAA2AAAIIAIIIIAAAAAAAAAA2
AIIIIIIAIIIIIIIIIIIIIIIIIIIIAAIAAAAAAAAAAA2AAAIIAIIIIAAAAAAAAAA2
AIIIIIIAIIIIIIIIIIIIIIIIIIIIAAIAAAAAAAAAAA2AAAIIAIIIIIAAAAAAAAA2
AIIIIIIAIIIIIIIIIIIIIIIIIIIIAAIAAAAAAAAAAA2AAAIIAIIIIIAAAAAAAAAA
AIIIIIIAIIIIIIIIIIIIIIIIIIIIAAIIAAAAAAAAAA2AAAIIAIIIIIAAAAAAAAAA
AIIIIIIAIIIIIIIIIIIIIIIIIIIIAAIIAAAAAAAAAAAAAAIIAIIIIIAAAAAAAAAA
AIIIIIIAIIIIIIIIIIIIIIIIIIIIAAIIAAAAAAAAAAAAAAIIAIIIIIIAAAAAAAAA
AIIIIIIAIIIIIIIIIIIIIIIIIIIIAAIIAAAAAAAAAAAAAAIIAIIIIIIIAAAAAAAA
AIIIIIIAIIIIIIIIIIIIIIIIIIIIAAIIAAAAAAAAAAAAAA2IAIIIIIIIAAAAAAAA
AIIIIIIAIIIIIIIIIIIIIIIIIIIIAAIIIAAAAAAAAAAAAA2IAIIIIIIIAAAAAAAA
AIIIIIIAIIIIIIIIIIIIIIIIIIIIAAIIIAAAAAAAAAAAAA22AIIIIIIIAAAAAAAA
AIIIIIIAIIIIIIIIIIIIIIIIIIIIAAIIIIAAAAAAAAAAAA22AIIIIIIIAAAAAAAA
AIIIIIIAIIIIIIIIIIIIIIIIIIIIAAIIIIAAAAAAAAAAAA22AIIIIIIIIAAAAAAA
AIIIIIIAIIIIIIIIIIIIIIIIIIIIAAIIIIAAAAAAAAAAAA22AIIIIIIIIIAAAAAA
AIIIIIIAIIIIIIIIIIIIIIIIIIIIAAIIIIIAAAAAAAAAAA22AIIIIIIIIIAAAAAA
AIIIIIIAIIIIIIIIIIIIIIIIIIIIAAIIIIIAAAAAAAAAAA22A2IIIIIIIIAAAAAA
AIIIIIIAIIIIIIIIIIIIIIIIIIIIAAIIIIIIAAAAAAAAAA22A2IIIIIIIIAAAAAA
AIIIIIIAIIIIIIIIIIIIIIIIIIIIAAIIIIIIAAAAAAAAAA22A2IIIIIIIIIAAAAA
AIIIIIIAIIIIIIIIIIIIIIIIIIIIAAIIIIIIAAAAAAAAAAA2A22IIIIIIIIAAAAA
AIIIIIIAIIIIIIIIIIIIIIIIIIIIAAIIIIIIIAAAAAAAAAA2A22IIIIIIIIAAAAA
AIIIIIIAIIIIIIIIIIIIIIIIIIIIAAIIIIIIIAAAAAAAAAAAA22IIIIIIIIAAAAA
AIIIIIIAIIIIIIIIIIIIIIIIIIIIAAIIIIIIIAAAAAAAAAAAA22IIIIIIIIIAAAA
AIIIIIIAIIIIIIIIIIIIIIIIIIIIAAIIIIIIIAAAAAAAAAAAA222IIIIIIIIAAAA
AIIIIIIAIIIIIIIIIIIIIIIIIIIIAAIIIIIIIIAAAAAAAAAAA222IIIIIIIIAAAA
AIIIIIIAIIIIIIIIIIIIIIIIIIIIAAIIIIIIIIAAAAAAAAAAA222IIIIIIIIIAAA
AIIIIIIAIIIIIIIIIIIIIIIIIIIIAAIIIIIIIIIAAAAAAAAAA222IIIIIIIIIAAA
AIIIIIIAIIIIIIIIIIIIIIIIIIIIAAIIIIIIIIIAAAAAAAAAAA222IIIIIIIIAAA
AIIIIIIAIIIIIIIIIIIIIIIIIIIIAAIIIIIIIIIIAAAAAAAAAA222IIIIIIIIAAA
AIIIIIIAIIIIIIIIIIIIIIIIIIIIAAIIIIIIIIIIAAAAAAAAAAA222IIIIIIIAAA
AIIIIIIAIIIIIIIIIIIIIIIIIIIIAAIIIIIIIIIIAAAAAAAAAAAA222IIIIIIAAA
AIIIIIIAIIIIIIIIIIIIIIIIIIIIAAIIIIIIIIIIIAAAAAAAAAAA222IIIIIIAAA
AIIIIIIAIIIIIIIIIIIIIIIIIIIIAAIIIIIIIIIIIAAAAAAAAAAA222IIIIIIAAI
AIIIIIIAIIIIIIIIIIIIIIIIIIIIAAIIIIIIIIIIIAAAAAAAAAAAA222IIIIIAAI
AIIIIIIAIIIIIIIIIIIIIIIIIIIIAAIIIIIIIIIIIIAAAAAAAAAAA222IIIIIAAI
AIIIIIIAIIIIIIIIIIIIIIIIIIIIAAIIIIIIIIIIIIAAAAAAAAAAAA222IIIIAAI
AIIIIIIAIIIIIIIIIIIIIIIIIIIIAAIIIIIIIIIIIIIAAAAAAAAAAA222IIIIAAI
AIIIIIIAIIIIIIIIIIIIIIIIIIIIAAIIIIIIIIIIIIIAIAAAAAAAAA222IIIIAAI
AIIIIIIAIIIIIIIIIIIIIIIIIIIIAAIIIIIIIIIIIIIAIAAAAAAAAAA222IIIAAI
AIIIIIIAIIIIIIIIIIIIIIIIIIIIAAIIIIIIIIIIIIIAIAAAAAAAAAAA222IIAAI
AIIIIIIAIIIIIIIIIIIIIIIIIIIIAAIIIIIIIIIIIIIAIAAAAAAAAAAAA222IAAI
AIIIIIIAIIIIIIIIIIIIIIIIIIIIAAIIIIIIIIIIIIIAIIAAAAAAAAAAA222IAAI
AIIIIIIAIIIIIIIIIIIIIIIIIIIIAAIIIIIIIIIIIIIAIIAAAAAAAAAAAA222AAI
AIIIIIIAIIIIIIIIIIIIIIIIIIIIAAIIIIIIIIIIIIIAIIIAAAAAAAAAAA222AAI
AIIIIIIAIIIIIIIIIIIIIIIIIIIIAAIIIIIIIIIIIIIAIIIAAAAAAAAAAAA22AAI
AIIIIIIAIIIIIIIIIIIIIIIIIIIIAAIIIIIIIIIIIIIAIIIIAAAAAAAAAAA22AAI
AIIIIIIAIIIIIIIIIIIIIIIIIIIIAAIIIIIIIIIIIIIAIIIIIAAAAAAAAAA22AAI
AIIIIIIAIIIIIIIIIIIIIIIIIIIIAAIIIIIIIIIIIIIAIIIIIAAAAAAAAAAA2AAI
AIIIIIIAIIIIIIIIIIIIIIIIIIIIAAIIIIIIIIIIIIIAIIIIIAAAAAAAAAAAAAA2
AIIIIIIAIIIIIIIIIIIIIIIIIIIIAAIIIIIIIIIIIIIAIIIIIIAAAAAAAAAAAAA2
AIIIIIIAIIIIIIIIIIIIIIIIIIIIAAIIIIIIIIIIIIIAIIIIIIIAAAAAAAAAAAA2
AIIIIIIAIIIIIIIIIIIIIIIIIIIIAAIIIIIIIIIIIIIAIIIIIIIIAAAAAAAAAAA2
AIIIIIIAIIIIIIIIIIIIIIIIIIIIAAIIIIIIIIIIIIIAIIIIIIIIAAAAAAAAAAAA
AIIIIIIAIIIIIIIIIIIIIIIIIIIIAAIIIIIIIIIIIIIAIIIIIIIIIAAAAAAAAAAA
AIIIIIIAIIIIIIIIIIIIIIIIIIIIAAIIIIIIIIIIIIIAIIIIIIIIIIAAAAAAAAAA
AIIIIIIAIIIIIIIIIIIIIIIIIIIIAAIIIIIIIIIIIIIAIIIIIIIIIIIAAAAAAAAA
AIIIIIIAIIIIIIIIIIIIIIIIIIIIAAIIIIIIIIIIIIIAIIIIIIIIIIIIAAAAAAAA
AIIIIIIAIIIIIIIIIIIIIIIIIIIIAAIIIIIIIIIIIIIAIIIIIIIIIIIIIAAAAAAA
AIIIIIIAIIIIIIIIIIIIIIIIIIIIAAIIIIIIIIIIIIIAIIIIIIIIIIIIIIAAAAAA
AIIIIIIAIIIIIIIIIIIIIIIIIIIIAAIIIIIIIIIIIIIAIIIIIIIIIIIIIIIAAAAA
AIIIIIIAIIIIIIIIIIIIIIIIIIIIAAIIIIIIIIIIIIIAIIIIIIIIIIIIIIIIAAAA
AIIIIIIAIIIIIIIIIIIIIIIIIIIIAAIIIIIIIIIIIIIAIIIIIIIIIIIIIIIIIAAA
AIIIIIIAIIIIIIIIIIIIIIIIIIIIAAIIIIIIIIIIIIIAIIIIIIIIIIIIIIIIIIAA
AIIIIIIAIIIIIIIIIIIIIIIIIIIIAAIIIIIIIIIIIIIAIIIIIIIIIIIIIIIIIIIA
AIIIIIIAIIIIIIIIIIIIIIIIIIIIAAIIIIIIIIIIIIIAIIIIIIIIIIIIIIIIIIII
[MLOP] Prefetch Degree Mean: 2.97739
[MLOP] Prefetch Degree SD: 0.46123
[MLOP] Max Score Left Mean (%): 94.92099
[MLOP] Max Score Left SD (%): 5.80715
[MLOP] Max Score Right Mean (%): 99.56003
[MLOP] Max Score Right SD (%): 1.38436

Channel_0_RQ_row_buffer_hit 949593
Channel_0_RQ_row_buffer_miss 379441
Channel_0_WQ_row_buffer_hit 107127
Channel_0_WQ_row_buffer_miss 187282
Channel_0_WQ_full 0
Channel_0_dbus_congested 441630

avg_congested_cycle 8

DRAM_bw_pochs 1955458
DRAM_bw_level_0 1770980
DRAM_bw_level_1 54911
DRAM_bw_level_2 97961
DRAM_bw_level_3 31606
